<?xml version="1.0" encoding="UTF-8"?>

<!-- generated on 2025-04-03 21:26:20 by Eclipse SUMO polyconvert Version 1.22.0
<polyconvertConfiguration xmlns:xsi="http://www.w3.org/2001/XMLSchema-instance" xsi:noNamespaceSchemaLocation="http://sumo.dlr.de/xsd/polyconvertConfiguration.xsd">

    <input>
        <net-file value="test.net.xml"/>
        <osm-files value="map.osm"/>
        <type-file value="typemap.xml"/>
    </input>

    <output>
        <output-file value="map.poly.xml"/>
    </output>

    <report>
        <xml-validation value="never"/>
    </report>

</polyconvertConfiguration>
-->

<additional xmlns:xsi="http://www.w3.org/2001/XMLSchema-instance" xsi:noNamespaceSchemaLocation="http://sumo.dlr.de/xsd/additional_file.xsd">
    <location netOffset="-245300.41,-2545397.09" convBoundary="-3652.07,-5315.59,8533.45,13052.35" origBoundary="72.479275,22.950575,72.596721,23.116035" projParameter="+proj=utm +zone=43 +ellps=WGS84 +datum=WGS84 +units=m +no_defs"/>

    <poly id="1006406673" type="leisure" color="207,245,201" fill="1" layer="-2.00" shape="2653.254079,4793.768009 2665.558246,4796.131776 2675.934994,4805.231526 2689.751827,4812.788696 2706.620176,4815.208733 2726.236079,4810.879038 2737.590591,4801.281041 2747.362831,4782.346810 2750.022934,4760.629080 2759.614416,4682.728669 2754.534185,4667.833507 2751.380233,4657.725896 2743.165073,4648.501120 2736.918891,4643.553485 2731.157875,4639.406558 2719.515693,4636.167337 2702.460129,4637.262860 2688.630087,4641.129655 2679.735368,4648.215426 2672.727183,4654.061739 2672.503456,4657.223381 2667.357086,4657.309894 2661.413777,4699.049513 2656.018569,4749.599833 2653.254079,4793.768009"/>
    <poly id="1006406673#1" type="sport" color="79,230,125" fill="1" layer="-2.00" shape="2653.254079,4793.768009 2665.558246,4796.131776 2675.934994,4805.231526 2689.751827,4812.788696 2706.620176,4815.208733 2726.236079,4810.879038 2737.590591,4801.281041 2747.362831,4782.346810 2750.022934,4760.629080 2759.614416,4682.728669 2754.534185,4667.833507 2751.380233,4657.725896 2743.165073,4648.501120 2736.918891,4643.553485 2731.157875,4639.406558 2719.515693,4636.167337 2702.460129,4637.262860 2688.630087,4641.129655 2679.735368,4648.215426 2672.727183,4654.061739 2672.503456,4657.223381 2667.357086,4657.309894 2661.413777,4699.049513 2656.018569,4749.599833 2653.254079,4793.768009"/>
    <poly id="1009181769" type="leisure" color="207,245,201" fill="1" layer="-2.00" shape="2665.861138,4771.450888 2735.508083,4779.266285 2746.435743,4683.249305 2676.777932,4675.422913 2665.861138,4771.450888"/>
    <poly id="1009181769#1" type="sport" color="79,230,125" fill="1" layer="-2.00" shape="2665.861138,4771.450888 2735.508083,4779.266285 2746.435743,4683.249305 2676.777932,4675.422913 2665.861138,4771.450888"/>
    <poly id="1009181770" type="leisure" color="207,245,201" fill="1" layer="-2.00" shape="2846.209184,5005.914597 2908.053385,5011.413024 2915.020569,4934.144094 2853.175873,4928.634532 2846.209184,5005.914597"/>
    <poly id="1009181770#1" type="sport" color="79,230,125" fill="1" layer="-2.00" shape="2846.209184,5005.914597 2908.053385,5011.413024 2915.020569,4934.144094 2853.175873,4928.634532 2846.209184,5005.914597"/>
    <poly id="1066410775" type="building" color="255,230,230" fill="1" layer="-1.00" shape="4792.540276,3947.377624 4801.753593,3945.794764 4807.765486,3972.408711 4798.567975,3974.323707 4792.540276,3947.377624"/>
    <poly id="1066410777" type="building" color="255,230,230" fill="1" layer="-1.00" shape="4767.840737,3952.575837 4788.058724,3947.984149 4794.393623,3974.902952 4773.868480,3979.521915 4767.840737,3952.575837"/>
    <poly id="1136222354" type="leisure" color="207,245,201" fill="1" layer="-2.00" shape="5043.515779,5044.613764 5201.535858,5061.461548 5230.043806,4930.308594 5273.808888,4727.546237 5041.796696,4687.708236 5019.984162,4744.269725 4986.963250,4831.576871 4945.030667,4940.971218 4938.518347,4955.073892 4902.351365,5076.892907 5043.515779,5044.613764"/>
    <poly id="1188258324" type="building" color="255,230,230" fill="1" layer="-1.00" shape="5388.418937,5494.308628 5378.080649,5487.998768 5374.765687,5485.970862 5369.004556,5495.307490 5382.647551,5503.645421 5388.418937,5494.308628"/>
    <poly id="1192740604" type="amenity" color="237,199,199" fill="1" layer="-1.00" shape="2816.882285,3819.854723 2683.059789,3805.670759 2692.636247,3716.446647 2886.652105,3737.010592 2877.064285,3826.234649 2816.882285,3819.854723"/>
    <poly id="1192740604#1" type="building" color="255,230,230" fill="1" layer="-1.00" shape="2816.882285,3819.854723 2683.059789,3805.670759 2692.636247,3716.446647 2886.652105,3737.010592 2877.064285,3826.234649 2816.882285,3819.854723"/>
    <poly id="1198134736" type="building" color="255,230,230" fill="1" layer="-1.00" shape="4766.408904,4611.722105 4905.918578,4597.419483 4908.032059,4617.793817 4768.522761,4632.107514 4766.408904,4611.722105"/>
    <poly id="1198134737" type="building" color="255,230,230" fill="1" layer="-1.00" shape="3881.724821,4754.162157 3894.742629,4773.456576 4011.347153,4695.651394 3998.329637,4676.367960 3881.724821,4754.162157"/>
    <poly id="1198134746" type="leisure" color="207,245,201" fill="1" layer="-2.00" shape="5336.438297,5172.355386 5359.602231,5172.357840 5359.596326,5218.849926 5336.432648,5218.858556 5336.438297,5172.355386"/>
    <poly id="1198134747" type="building" color="255,230,230" fill="1" layer="-1.00" shape="5161.384006,5339.442394 5183.261583,5344.108523 5212.860314,5207.086971 5190.982557,5202.420782 5161.384006,5339.442394"/>
    <poly id="1198134751" type="building" color="255,230,230" fill="1" layer="-1.00" shape="2919.645598,5226.585507 3057.567201,5196.801377 3052.656913,5174.291166 2948.982995,5196.674615 2914.735102,5204.075321 2919.645598,5226.585507"/>
    <poly id="1198134752" type="building" color="255,230,230" fill="1" layer="-1.00" shape="5331.812896,4369.659126 5352.407074,4366.136662 5346.620763,4390.021782 5374.750277,4395.027561 5383.792432,4359.731258 5470.690892,4348.070804 5467.915560,4330.399930 5387.207964,4341.890972 5404.507210,4257.372750 5376.344554,4251.004593 5355.673453,4347.345959 5329.037398,4351.988263 5331.812896,4369.659126"/>
    <poly id="1242718839" type="building" color="255,230,230" fill="1" layer="-1.00" shape="3571.149733,4503.896102 3600.307787,4504.139049 3600.398332,4493.013006 3598.624030,4492.998400 3598.654247,4488.067203 3605.053776,4488.104072 3605.178238,4465.531610 3601.035025,4465.512355 3601.053459,4461.102124 3604.160870,4461.116566 3604.203912,4452.052238 3590.697449,4451.990347 3590.704878,4449.984705 3584.141489,4449.961665 3584.147805,4447.889561 3565.082623,4447.787828 3565.122669,4440.994990 3537.976255,4440.862444 3537.773263,4477.718623 3539.762854,4477.729615 3539.749309,4479.369713 3547.749238,4479.446231 3547.774428,4476.664677 3560.410212,4476.785431 3560.492283,4468.828467 3565.476887,4468.877940 3565.659732,4452.243486 3581.311053,4452.402394 3581.205958,4461.434522 3584.108519,4461.463471 3584.067037,4465.109554 3576.826107,4465.042464 3576.566230,4489.323550 3578.309776,4489.338669 3578.268434,4493.605241 3571.232740,4493.545798 3571.149733,4503.896102"/>
    <poly id="1242718840" type="leisure" color="207,245,201" fill="1" layer="-2.00" shape="3797.786258,4252.548270 3863.381611,4254.110095 3864.721748,4198.742177 3799.146474,4197.168903 3797.786258,4252.548270"/>
    <poly id="1242718840#1" type="sport" color="79,230,125" fill="1" layer="-2.00" shape="3797.786258,4252.548270 3863.381611,4254.110095 3864.721748,4198.742177 3799.146474,4197.168903 3797.786258,4252.548270"/>
    <poly id="1242718841" type="building" color="255,230,230" fill="1" layer="-1.00" shape="3609.871890,4047.685098 3639.963318,4059.524636 3642.216838,4053.858169 3650.588578,4057.141799 3657.231512,4040.465702 3643.099225,4034.896263 3641.731115,4038.320786 3638.943949,4037.226187 3640.518637,4033.277435 3628.110306,4028.388280 3626.407907,4032.671577 3622.103294,4030.981895 3623.136738,4028.393987 3594.439100,4017.118387 3591.250961,4025.149514 3598.642104,4028.050650 3597.028272,4032.110864 3603.294327,4034.576552 3602.172697,4037.409703 3612.361438,4041.416343 3609.871890,4047.685098"/>
    <poly id="1242718842" type="building" color="255,230,230" fill="1" layer="-1.00" shape="3818.097940,4492.615220 3914.978650,4491.083098 3914.427080,4456.267319 3817.556211,4457.788175 3818.097940,4492.615220"/>
    <poly id="1272670385" type="leisure" color="207,245,201" fill="1" layer="-2.00" shape="5046.578409,4880.632746 5048.130196,4887.609523 5050.355623,4894.397799 5053.223015,4900.942703 5056.710759,4907.178114 5060.797431,4913.048988 5065.431035,4918.511873 5070.569274,4923.489910 5076.170773,4927.961631 5082.173102,4931.872674 5088.534702,4935.190493 5095.183076,4937.871973 5102.066783,4939.906893 5109.113880,4941.285369 5116.262122,4941.964119 5123.440119,4941.966492 5130.585994,4941.271358 5137.638425,4939.890817 5144.515770,4937.848389 5151.166959,4935.156004 5157.520600,4931.837011 5163.525806,4927.914416 5169.121992,4923.444628 5174.258269,4918.450654 5178.894555,4912.988560 5182.970262,4907.114757 5186.455373,4900.874062 5189.320056,4894.322372 5191.534847,4887.537738 5193.079979,4880.564809 5193.946307,4873.470218 5194.114617,4866.331843 5193.596266,4859.215978 5192.381923,4852.178177 5190.493196,4845.284561 5187.951878,4838.612329 5184.758890,4832.216865 5180.976662,4826.152532 5176.606299,4820.485791 5171.720299,4815.259758 5166.340086,4810.529475 5160.527722,4806.327152 5154.345823,4802.718226 5147.825327,4799.713263 5141.048801,4797.344130 5134.078307,4795.643034 5126.975354,4794.608951 5119.802006,4794.274089 5112.629656,4794.615099 5105.530433,4795.652940 5098.555227,4797.364606 5091.785867,4799.737653 5085.273241,4802.749074 5079.078491,4806.375690 5073.272640,4810.571998 5067.906576,4815.314989 5063.009948,4820.537690 5058.654147,4826.216751 5054.868820,4832.285197 5051.694051,4838.686960 5049.149420,4845.366312 5047.264574,4852.256278 5046.058907,4859.290056 5045.541749,4866.412089 5045.711992,4873.555915 5046.578409,4880.632746"/>
    <poly id="1272670385#1" type="sport" color="79,230,125" fill="1" layer="-2.00" shape="5046.578409,4880.632746 5048.130196,4887.609523 5050.355623,4894.397799 5053.223015,4900.942703 5056.710759,4907.178114 5060.797431,4913.048988 5065.431035,4918.511873 5070.569274,4923.489910 5076.170773,4927.961631 5082.173102,4931.872674 5088.534702,4935.190493 5095.183076,4937.871973 5102.066783,4939.906893 5109.113880,4941.285369 5116.262122,4941.964119 5123.440119,4941.966492 5130.585994,4941.271358 5137.638425,4939.890817 5144.515770,4937.848389 5151.166959,4935.156004 5157.520600,4931.837011 5163.525806,4927.914416 5169.121992,4923.444628 5174.258269,4918.450654 5178.894555,4912.988560 5182.970262,4907.114757 5186.455373,4900.874062 5189.320056,4894.322372 5191.534847,4887.537738 5193.079979,4880.564809 5193.946307,4873.470218 5194.114617,4866.331843 5193.596266,4859.215978 5192.381923,4852.178177 5190.493196,4845.284561 5187.951878,4838.612329 5184.758890,4832.216865 5180.976662,4826.152532 5176.606299,4820.485791 5171.720299,4815.259758 5166.340086,4810.529475 5160.527722,4806.327152 5154.345823,4802.718226 5147.825327,4799.713263 5141.048801,4797.344130 5134.078307,4795.643034 5126.975354,4794.608951 5119.802006,4794.274089 5112.629656,4794.615099 5105.530433,4795.652940 5098.555227,4797.364606 5091.785867,4799.737653 5085.273241,4802.749074 5079.078491,4806.375690 5073.272640,4810.571998 5067.906576,4815.314989 5063.009948,4820.537690 5058.654147,4826.216751 5054.868820,4832.285197 5051.694051,4838.686960 5049.149420,4845.366312 5047.264574,4852.256278 5046.058907,4859.290056 5045.541749,4866.412089 5045.711992,4873.555915 5046.578409,4880.632746"/>
    <poly id="1272670386" type="leisure" color="207,245,201" fill="1" layer="-2.00" shape="5043.122281,4881.222148 5044.751363,4888.530040 5047.074405,4895.638014 5050.080231,4902.490854 5053.736980,4909.022613 5058.012974,4915.178416 5062.865917,4920.881408 5068.244180,4926.110290 5074.105469,4930.788206 5080.397972,4934.882778 5087.059444,4938.350724 5094.027823,4941.159836 5101.231166,4943.300234 5108.607228,4944.728633 5116.094502,4945.446058 5123.610792,4945.442799 5131.094592,4944.719878 5138.474144,4943.278490 5145.678057,4941.141986 5152.644824,4938.311387 5159.303424,4934.832196 5165.592902,4930.738668 5171.452120,4926.053981 5176.830559,4920.823295 5181.678067,4915.113925 5185.943757,4908.948878 5189.598350,4902.417281 5192.601576,4895.564123 5194.923602,4888.445303 5196.545401,4881.149776 5197.447205,4873.722192 5197.620237,4866.251337 5197.075670,4858.792425 5195.804540,4851.423167 5193.828457,4844.209682 5191.158777,4837.218264 5187.827543,4830.525938 5183.855996,4824.176673 5179.286247,4818.236248 5174.170474,4812.759197 5168.540354,4807.800391 5162.448065,4803.414365 5155.965738,4799.622077 5149.145552,4796.478062 5142.059636,4794.003277 5134.749366,4792.219196 5127.317443,4791.135189 5119.805426,4790.783804 5112.294959,4791.141524 5104.847921,4792.229476 5097.556209,4794.023972 5090.460644,4796.513252 5083.642686,4799.662718 5077.163660,4803.460269 5071.074086,4807.860744 5065.455240,4812.818468 5060.337322,4818.299697 5055.770483,4824.237115 5051.805242,4830.585560 5048.471615,4837.300211 5045.809133,4844.291769 5043.837375,4851.504507 5042.575735,4858.871620 5042.033359,4866.326476 5042.219388,4873.802442 5043.122281,4881.222148"/>
    <poly id="1272670386#1" type="sport" color="79,230,125" fill="1" layer="-2.00" shape="5043.122281,4881.222148 5044.751363,4888.530040 5047.074405,4895.638014 5050.080231,4902.490854 5053.736980,4909.022613 5058.012974,4915.178416 5062.865917,4920.881408 5068.244180,4926.110290 5074.105469,4930.788206 5080.397972,4934.882778 5087.059444,4938.350724 5094.027823,4941.159836 5101.231166,4943.300234 5108.607228,4944.728633 5116.094502,4945.446058 5123.610792,4945.442799 5131.094592,4944.719878 5138.474144,4943.278490 5145.678057,4941.141986 5152.644824,4938.311387 5159.303424,4934.832196 5165.592902,4930.738668 5171.452120,4926.053981 5176.830559,4920.823295 5181.678067,4915.113925 5185.943757,4908.948878 5189.598350,4902.417281 5192.601576,4895.564123 5194.923602,4888.445303 5196.545401,4881.149776 5197.447205,4873.722192 5197.620237,4866.251337 5197.075670,4858.792425 5195.804540,4851.423167 5193.828457,4844.209682 5191.158777,4837.218264 5187.827543,4830.525938 5183.855996,4824.176673 5179.286247,4818.236248 5174.170474,4812.759197 5168.540354,4807.800391 5162.448065,4803.414365 5155.965738,4799.622077 5149.145552,4796.478062 5142.059636,4794.003277 5134.749366,4792.219196 5127.317443,4791.135189 5119.805426,4790.783804 5112.294959,4791.141524 5104.847921,4792.229476 5097.556209,4794.023972 5090.460644,4796.513252 5083.642686,4799.662718 5077.163660,4803.460269 5071.074086,4807.860744 5065.455240,4812.818468 5060.337322,4818.299697 5055.770483,4824.237115 5051.805242,4830.585560 5048.471615,4837.300211 5045.809133,4844.291769 5043.837375,4851.504507 5042.575735,4858.871620 5042.033359,4866.326476 5042.219388,4873.802442 5043.122281,4881.222148"/>
    <poly id="1272670387" type="building" color="255,230,230" fill="1" layer="-1.00" shape="5039.175375,4881.897285 5040.882492,4889.580601 5043.324389,4897.052237 5046.489891,4904.256981 5050.336885,4911.129054 5054.823074,4917.591598 5059.927215,4923.600649 5065.586694,4929.090769 5071.749331,4934.007428 5078.373567,4938.318077 5085.366218,4941.968868 5092.695977,4944.927083 5100.270213,4947.172106 5108.026865,4948.671728 5115.904427,4949.426975 5123.810452,4949.428306 5131.683249,4948.665669 5139.440993,4947.151505 5147.012110,4944.898087 5154.335461,4941.928591 5161.329405,4938.266537 5167.943423,4933.957087 5174.106310,4929.034664 5179.767362,4923.533352 5184.866362,4917.531715 5189.352420,4911.052759 5193.196259,4904.185610 5196.347358,4896.975430 5198.786319,4889.489021 5200.494114,4881.815341 5201.440909,4874.010286 5201.627993,4866.151394 5201.056657,4858.316205 5199.717568,4850.560275 5197.642956,4842.971707 5194.834109,4835.628042 5191.332954,4828.583981 5187.150847,4821.905817 5182.350404,4815.658989 5176.963485,4809.909447 5171.042083,4804.700647 5164.648445,4800.075874 5157.834935,4796.100737 5150.663247,4792.785290 5143.195812,4790.183894 5135.525079,4788.306092 5127.702675,4787.173185 5119.800546,4786.795054 5111.900890,4787.181413 5104.075283,4788.319989 5096.405739,4790.209416 5088.942963,4792.815611 5081.779219,4796.137037 5074.965029,4800.128532 5068.571415,4804.744591 5062.649266,4809.962209 5057.269421,4815.724803 5052.471963,4821.976305 5048.296976,4828.660647 5044.794610,4835.710512 5041.994512,4843.058925 5039.926512,4850.649989 5038.589135,4858.395088 5038.022463,4866.238152 5038.214767,4874.090737 5039.175375,4881.897285"/>
    <poly id="1272696642" type="building" color="255,230,230" fill="1" layer="-1.00" shape="5081.510177,4762.735046 5052.211662,4778.635317 5028.919950,4802.402201 5013.712726,4831.951248 5007.940436,4864.633955 5012.098382,4897.561228 5025.840316,4927.802612 5047.931825,4952.664062 5076.408737,4969.962300 5108.753242,4978.132674 5142.082467,4976.469762 5173.445747,4965.122416 5200.049934,4945.078923 5219.535800,4918.140260 5230.168926,4886.684238 5231.011401,4853.507541 5221.989179,4821.558694 5203.887865,4793.683294 5185.751584,4777.265296 5153.200544,4761.020773 5117.196208,4756.013610 5081.510177,4762.735046"/>
    <poly id="1272696643" type="leisure" color="207,245,201" fill="1" layer="-2.00" shape="5119.273020,4675.648412 5134.110211,4680.520418 5140.144940,4662.348346 5125.307734,4657.476332 5119.273020,4675.648412"/>
    <poly id="1272696643#1" type="sport" color="79,230,125" fill="1" layer="-2.00" shape="5119.273020,4675.648412 5134.110211,4680.520418 5140.144940,4662.348346 5125.307734,4657.476332 5119.273020,4675.648412"/>
    <poly id="1272696644" type="leisure" color="207,245,201" fill="1" layer="-2.00" shape="5064.718177,4671.869826 5088.798892,4680.078107 5099.207340,4649.911021 5116.564020,4655.826916 5123.167225,4636.692486 5081.729564,4622.557190 5064.718177,4671.869826"/>
    <poly id="1272696644#1" type="sport" color="79,230,125" fill="1" layer="-2.00" shape="5064.718177,4671.869826 5088.798892,4680.078107 5099.207340,4649.911021 5116.564020,4655.826916 5123.167225,4636.692486 5081.729564,4622.557190 5064.718177,4671.869826"/>
    <poly id="1287011243" type="building" color="255,230,230" fill="1" layer="-1.00" shape="5639.197606,3992.017181 5650.849003,3971.137260 5654.440516,3952.751243 5665.630956,3954.748180 5662.041405,3972.635559 5648.755123,3997.575752 5639.197606,3992.017181"/>
    <poly id="1287630005" type="building" color="255,230,230" fill="1" layer="-1.00" shape="4925.212836,4642.072161 4928.622457,4642.381000 4928.927193,4639.129454 4937.173807,4639.867398 4936.905279,4642.830258 4941.413850,4643.242673 4941.213493,4645.373390 4945.372771,4645.747305 4946.656211,4631.687440 4943.914235,4631.445035 4944.227749,4628.104702 4933.660021,4627.150580 4933.416158,4629.747386 4929.616235,4629.400727 4929.485712,4630.798994 4926.271238,4630.509063 4925.212836,4642.072161"/>
    <poly id="1289717960" type="leisure" color="207,245,201" fill="1" layer="-2.00" shape="3743.366584,4218.390134 3763.256522,4219.963067 3765.929982,4186.688845 3746.039815,4185.104827 3743.366584,4218.390134"/>
    <poly id="1289717960#1" type="sport" color="79,230,125" fill="1" layer="-2.00" shape="3743.366584,4218.390134 3763.256522,4219.963067 3765.929982,4186.688845 3746.039815,4185.104827 3743.366584,4218.390134"/>
    <poly id="1289717961" type="leisure" color="207,245,201" fill="1" layer="-2.00" shape="3729.539119,4261.657015 3766.215698,4265.043155 3769.686913,4227.966158 3733.010246,4224.580001 3729.539119,4261.657015"/>
    <poly id="1289717961#1" type="sport" color="79,230,125" fill="1" layer="-2.00" shape="3729.539119,4261.657015 3766.215698,4265.043155 3769.686913,4227.966158 3733.010246,4224.580001 3729.539119,4261.657015"/>
    <poly id="1289717962" type="leisure" color="207,245,201" fill="1" layer="-2.00" shape="3841.636323,3549.364602 3825.611873,3643.448446 3828.892365,3658.706379 3840.089696,3670.275163 3851.443897,3675.281867 3861.379695,3677.032569 3875.123435,3676.525723 3891.012152,3672.437366 3899.898018,3661.075649 3916.144886,3563.708483 3915.446124,3554.423905 3910.311229,3543.562553 3902.696602,3532.210815 3889.100199,3525.590610 3875.328907,3524.458024 3859.441207,3528.003434 3847.751619,3536.675254 3841.636323,3549.364602"/>
    <poly id="1289717962#1" type="sport" color="79,230,125" fill="1" layer="-2.00" shape="3841.636323,3549.364602 3825.611873,3643.448446 3828.892365,3658.706379 3840.089696,3670.275163 3851.443897,3675.281867 3861.379695,3677.032569 3875.123435,3676.525723 3891.012152,3672.437366 3899.898018,3661.075649 3916.144886,3563.708483 3915.446124,3554.423905 3910.311229,3543.562553 3902.696602,3532.210815 3889.100199,3525.590610 3875.328907,3524.458024 3859.441207,3528.003434 3847.751619,3536.675254 3841.636323,3549.364602"/>
    <poly id="1291874072" type="building" color="255,230,230" fill="1" layer="-1.00" shape="5232.935554,4654.244649 5256.250624,4657.734739 5258.699505,4641.594647 5235.384412,4638.104551 5232.935554,4654.244649"/>
    <poly id="1291874073" type="building" color="255,230,230" fill="1" layer="-1.00" shape="5228.568881,4671.602229 5262.176282,4677.990244 5261.137996,4683.381355 5276.537457,4686.305128 5280.426251,4666.107940 5231.419340,4656.796136 5228.568881,4671.602229"/>
    <poly id="1291874074" type="building" color="255,230,230" fill="1" layer="-1.00" shape="5196.473248,4667.327581 5199.030068,4652.747967 5221.058433,4656.558579 5217.696272,4675.738741 5205.705164,4673.666871 5206.520734,4669.066146 5196.473248,4667.327581"/>
    <poly id="1291874075" type="building" color="255,230,230" fill="1" layer="-1.00" shape="5201.355683,4647.689989 5204.543176,4631.570831 5220.767073,4634.735676 5217.569496,4650.866077 5201.355683,4647.689989"/>
    <poly id="1291874076" type="building" color="255,230,230" fill="1" layer="-1.00" shape="5167.687394,4647.507958 5175.615698,4648.838573 5176.192446,4646.524317 5182.587990,4648.179608 5182.797230,4646.580594 5184.638531,4646.926672 5186.539224,4652.689921 5192.202294,4654.080404 5190.510420,4665.177560 5175.286149,4661.076467 5175.306541,4661.685532 5179.806203,4662.796211 5178.343094,4668.537883 5174.389531,4667.584317 5174.831974,4665.826300 5165.451681,4663.511567 5167.687394,4647.507958"/>
    <poly id="1291874077" type="building" color="255,230,230" fill="1" layer="-1.00" shape="5178.772247,4623.468054 5196.762384,4626.780761 5196.282136,4629.348251 5200.077508,4630.038535 5198.552610,4638.229930 5193.800524,4637.356127 5190.113230,4638.846822 5189.702564,4643.130567 5184.838072,4645.361060 5175.025247,4643.552121 5178.772247,4623.468054"/>
    <poly id="1291874078" type="building" color="255,230,230" fill="1" layer="-1.00" shape="5095.627735,4617.217880 5102.542189,4604.460388 5113.470572,4611.679954 5111.987339,4614.363866 5114.327252,4615.709923 5115.673451,4612.186206 5127.607840,4617.006816 5125.468028,4623.369164 5128.657753,4626.484970 5130.040943,4624.567251 5141.698376,4631.231774 5139.649423,4635.044189 5142.125552,4639.645527 5143.017329,4637.159824 5154.199746,4641.161963 5153.013141,4644.417098 5159.512201,4646.746541 5157.188590,4653.156264 5151.659266,4651.176323 5150.581005,4654.163733 5138.893319,4649.992727 5140.079367,4646.704360 5135.531752,4639.633405 5134.067732,4642.239435 5123.272617,4636.247528 5125.015384,4633.138253 5123.960642,4627.682250 5123.553678,4629.107275 5111.448748,4626.361485 5112.375477,4622.279666 5107.181411,4619.496392 5105.539871,4622.526423 5095.627735,4617.217880"/>
    <poly id="1291874079" type="building" color="255,230,230" fill="1" layer="-1.00" shape="5253.184478,4718.127842 5256.359146,4700.003418 5277.440476,4704.217663 5275.304762,4718.225168 5259.051255,4719.437397 5253.184478,4718.127842"/>
    <poly id="1291874080" type="building" color="255,230,230" fill="1" layer="-1.00" shape="5257.038050,4697.665306 5278.226506,4702.154773 5280.310158,4692.413963 5259.121690,4687.924493 5257.038050,4697.665306"/>
    <poly id="1291874081" type="building" color="255,230,230" fill="1" layer="-1.00" shape="5226.008755,4716.796144 5250.679400,4721.028183 5253.055852,4707.315829 5228.385371,4703.094861 5226.008755,4716.796144"/>
    <poly id="1291874082" type="building" color="255,230,230" fill="1" layer="-1.00" shape="5238.966890,4700.569809 5253.683473,4703.128198 5256.437374,4687.448391 5241.720961,4684.901076 5238.966890,4700.569809"/>
    <poly id="1291874084" type="building" color="255,230,230" fill="1" layer="-1.00" shape="5155.157248,4703.615531 5155.669496,4690.033903 5160.024344,4684.908899 5169.382244,4685.262827 5169.270026,4688.378197 5174.769836,4688.585821 5174.456303,4696.856780 5168.587072,4696.633145 5168.311526,4704.105707 5155.157248,4703.615531"/>
    <poly id="1291874085" type="building" color="255,230,230" fill="1" layer="-1.00" shape="5178.078709,4699.477869 5178.634013,4686.017409 5198.971948,4686.842337 5198.524313,4697.530983 5196.601509,4701.529652 5196.940201,4706.476811 5198.486893,4706.373509 5199.966577,4707.789294 5199.279274,4710.238350 5196.838006,4710.810822 5189.963024,4710.537438 5190.115810,4706.778748 5180.193169,4706.378808 5180.469715,4699.582116 5178.078709,4699.477869"/>
    <poly id="1291874086" type="building" color="255,230,230" fill="1" layer="-1.00" shape="5224.171774,4776.481852 5228.132277,4759.984190 5241.834900,4763.235319 5237.874383,4779.732976 5224.171774,4776.481852"/>
    <poly id="1291874087" type="building" color="255,230,230" fill="1" layer="-1.00" shape="5226.261895,4751.727416 5246.587576,4756.751952 5252.933525,4731.394868 5232.607814,4726.370321 5226.261895,4751.727416"/>
    <poly id="1291874088" type="building" color="255,230,230" fill="1" layer="-1.00" shape="5133.515289,4711.310796 5175.795348,4721.243912 5177.644286,4713.423842 5192.859656,4716.993237 5191.393488,4723.167082 5214.422378,4728.567634 5216.003463,4721.904355 5226.720094,4724.418480 5223.950950,4736.098642 5215.396362,4734.102545 5213.413104,4742.478848 5186.327990,4736.115362 5184.181351,4745.148115 5128.580205,4732.090549 5133.515289,4711.310796"/>
    <poly id="1291874089" type="building" color="255,230,230" fill="1" layer="-1.00" shape="5332.712255,4678.368053 5348.349130,4679.537300 5350.215796,4654.897425 5334.589147,4653.728004 5332.712255,4678.368053"/>
    <poly id="1291874090" type="building" color="255,230,230" fill="1" layer="-1.00" shape="5352.927941,4678.009657 5365.483638,4678.886684 5367.326384,4652.806804 5354.770849,4651.940850 5352.927941,4678.009657"/>
    <poly id="1291874091" type="building" color="255,230,230" fill="1" layer="-1.00" shape="5375.408243,4666.456000 5394.562021,4668.220533 5395.633791,4656.823486 5376.479814,4655.047873 5375.408243,4666.456000"/>
    <poly id="1291874092" type="building" color="255,230,230" fill="1" layer="-1.00" shape="5377.922990,4689.416394 5392.873914,4690.652493 5394.279050,4674.020112 5379.317675,4672.773103 5377.922990,4689.416394"/>
    <poly id="1291874093" type="building" color="255,230,230" fill="1" layer="-1.00" shape="5377.214299,4717.095102 5378.818401,4695.163137 5385.984472,4695.675529 5391.487399,4696.071541 5389.883464,4718.014580 5377.214299,4717.095102"/>
    <poly id="1291874094" type="building" color="255,230,230" fill="1" layer="-1.00" shape="5348.075701,4704.405519 5348.910302,4694.164735 5360.410815,4695.103628 5360.028529,4699.863334 5365.860979,4700.342496 5366.270337,4695.360739 5376.055893,4696.150884 5375.201139,4706.414159 5365.774762,4705.640202 5365.954305,4703.487683 5359.947395,4703.000342 5359.760918,4705.352418 5348.075701,4704.405519"/>
    <poly id="1291874095" type="building" color="255,230,230" fill="1" layer="-1.00" shape="5400.443823,4701.883678 5401.143145,4685.972158 5424.386088,4686.981766 5423.686557,4702.882205 5400.443823,4701.883678"/>
    <poly id="1291874096" type="building" color="255,230,230" fill="1" layer="-1.00" shape="5398.754390,4679.219802 5400.546510,4660.575496 5416.609599,4662.092289 5416.338951,4664.933285 5422.532057,4665.517274 5421.877013,4672.375644 5416.577453,4671.876518 5416.079128,4677.059193 5411.981210,4676.673049 5411.623336,4680.435141 5398.754390,4679.219802"/>
    <poly id="1291874097" type="building" color="255,230,230" fill="1" layer="-1.00" shape="5430.976713,4679.404223 5452.971550,4680.589748 5450.314996,4729.275374 5428.320229,4728.089860 5430.976713,4679.404223"/>
    <poly id="1291874098" type="building" color="255,230,230" fill="1" layer="-1.00" shape="5321.118606,4740.875209 5331.367969,4741.192244 5331.754537,4728.676416 5335.119614,4728.775564 5335.466050,4717.545692 5324.898506,4717.211785 5324.644560,4725.370940 5326.368289,4725.430908 5326.147912,4732.525818 5321.387524,4732.383402 5321.118606,4740.875209"/>
    <poly id="1291874099" type="building" color="255,230,230" fill="1" layer="-1.00" shape="5364.407606,4733.185824 5363.486697,4744.403088 5349.942856,4743.298741 5350.863939,4732.092553 5364.407606,4733.185824"/>
    <poly id="1291874100" type="building" color="255,230,230" fill="1" layer="-1.00" shape="5338.367582,4731.081594 5337.341045,4742.112257 5349.942856,4743.298741 5350.863939,4732.092553 5338.367582,4731.081594"/>
    <poly id="1291874101" type="building" color="255,230,230" fill="1" layer="-1.00" shape="5340.267282,4728.158098 5351.449237,4729.057960 5352.149106,4720.581148 5340.966960,4719.670208 5340.267282,4728.158098"/>
    <poly id="1291874102" type="building" color="255,230,230" fill="1" layer="-1.00" shape="5368.147544,4718.830339 5367.379113,4729.967505 5352.739822,4728.970014 5353.343006,4720.228889 5360.016918,4718.278598 5368.147544,4718.830339"/>