<?xml version="1.0" encoding="UTF-8"?>

<!-- generated on 2025-04-03 21:27:46.120131 by randomTrips.py v1_22_0+0002-63e50f52594
<configuration>
    <net-file value="test.net.xml"/>
    <route-file value="map.rou.xml"/>
    <length value="True"/>
    <validate value="True"/>
    <end value="1000.0"/>
</configuration>
-->

<!-- generated on 2025-04-03 21:27:45 by Eclipse SUMO duarouter Version 1.22.0
<duarouterConfiguration xmlns:xsi="http://www.w3.org/2001/XMLSchema-instance" xsi:noNamespaceSchemaLocation="http://sumo.dlr.de/xsd/duarouterConfiguration.xsd">

    <input>
        <net-file value="test.net.xml"/>
        <route-files value="trips.trips.xml"/>
    </input>

    <output>
        <output-file value="map.rou.xml"/>
        <alternatives-output value="NUL"/>
    </output>

    <time>
        <begin value="0"/>
        <end value="1000.0"/>
    </time>

    <report>
        <no-warnings value="true"/>
        <ignore-errors value="true"/>
        <no-step-log value="true"/>
    </report>

</duarouterConfiguration>
-->

<routes xmlns:xsi="http://www.w3.org/2001/XMLSchema-instance" xsi:noNamespaceSchemaLocation="http://sumo.dlr.de/xsd/routes_file.xsd">
    <vehicle id="0" depart="0.00">
        <route edges="167466939#4 167466939#5 167449520#1 167449520#2 167449520#3 363812439 363812440 167449499#0 167449499#1 167046967#2 167045920#5 167045920#6 167045920#0 167045920#1 167045920#2 167045920#3 167045926#0 1202688500 167046969#0 167046969#1 167046969#2 167046969#3 167046969#4 167046969#5 167046966#0 167048052#0 167048052#1 167048052#2 167048052#3 167047662 167047653#0 167047653#1 167047653#2 1258480013#0 -1258480013#0"/>
    </vehicle>
    <vehicle id="1" depart="1.00">
        <route edges="-37574240#0 -167046634#0 167046549 1069815570 167046543#0 167046543#1 167046543#2 167046543#3 167046543#4 167046543#5 167046543#6 167046543#7 167046543#8 167046543#9 167046543#10 167046543#11 167049315#6 1213551725#0 1213551725#1 167043963#0 167043963#1 167044123#6 -1214976885 -1214976886 -1054636897 331667202#12 331667202#13 331667202#14 331667202#15 331667202#16 -331667202#16"/>
    </vehicle>
    <vehicle id="2" depart="2.00">
        <route edges="171996607#0 171996607#1 167051092#6 37358090#20 37358090#21 37358090#22 166458246#3 166482327#0 166482327#1 166482327#2 166482327#3 166482329#5 166482329#6 166482329#0 166483062#0 166483062#1 166483062#2 166483061#0 166483061#1 449235615 168135414"/>
    </vehicle>
    <vehicle id="3" depart="3.00">
        <route edges="37142793#7 -167454980#4 -167454980#3 -167454980#2 -167454980#1 -167454980#0 167450752#0 167450752#1 167450752#2 167450752#3 167450752#4 167450752#5 167450752#6 167450752#7 167450752#8 167450752#9 167450752#10 167448937#4 167448937#5 167448937#6 167448937#7 167448937#8 167448937#9 167046966#3 167046966#0 167048052#0 167048052#1 167048052#2 167048052#3 167047662 -167048848#3 -167048848#2"/>
    </vehicle>
    <vehicle id="4" depart="4.00">
        <route edges="1307434578 -167450752#0 167454980#0 167454980#1 167454980#2 167454980#3 167454980#4 167454980#5 167454980#6 167454980#7 167454980#8 167454980#9 167454980#10 167046967#1 167046967#2 167045920#5 167045920#6 167045920#0 167046551 167046634#0 167046634#1 167046634#2 167046634#3 167046634#4 167046634#5 167046634#6 167046634#7 167046634#8 167046634#9 -168134097#4 -168134097#3 168124716#0 168124716#1 -1262063333 -1262062895"/>
    </vehicle>
    <vehicle id="5" depart="5.00">
        <route edges="-331667202#7 1055033872 1055033871 1213551723#0 1213551723#1 1213551723#2 244329800#0 734329883#4 166954435#3 244329804#0 244329804#1 244329804#2 1327503566 178823738 1289350674 1289350672 1327503564 1213551724 167046968#0 1257759191#0 1257759191#1 1257759191#2 1257759191#3 1257759191#4 1257759191#5 1257759191#6 1257759191#7 1257759191#8 1257759191#9 167045920#3 167045920#4 167045920#5 167045921#0 167045921#1"/>
    </vehicle>
    <vehicle id="6" depart="6.00">
        <route edges="-1261813989 167048966#4 167049958#2 167049958#3 167049958#4 167049958#5 167049958#6 317776723#4 167448937#2 167448937#3 -167450752#10 -167450752#9 -167450752#8 -167450752#7 -167450752#6 -167450752#5 -167450752#4 -167450752#3 -167450752#2 -167450752#1 -167450752#0 317938568#0 -317938568#0"/>
    </vehicle>
    <vehicle id="7" depart="7.00">
        <route edges="168119164#1 168119164#2 167046552#14 168119166#1 168119166#2 168119166#3 168119162#1 168126211#0 168126211#1 168132492#0 168132492#1 168132492#2 168132496#6 168132496#7 168132496#8 168132496#9 168132496#10 168132496#11 168132496#12 168132496#13 168132496#14 168132496#15 168132496#16 1069815571#0 1069815571#1 1069815571#2 1069815571#3 754807128#0 -1261799833#1 -1261799833#0 167048848#2"/>
    </vehicle>
    <vehicle id="8" depart="8.00">
        <route edges="-334472641#1 -1055277454 758650090#1 1131593681#1 167051974#2 167051974#3 167051974#4 167051974#5 93548845#4 167051096#1 167051096#2 167051096#3 167051096#4 167051096#5 167052576#0 167052576#1"/>
    </vehicle>
    <vehicle id="9" depart="9.00">
        <route edges="317776721#1 317776721#2 317776721#3 -1121147959"/>
    </vehicle>
    <vehicle id="10" depart="10.00">
        <route edges="29376357#1 29376357#2 166955834#5 166955834#6 166955834#7 166955834#8 166955834#9 166955834#10 166955834#0 166955834#1 166955834#2 -167048967#3 -167048967#2 -167048967#1 -167048967#0 364215160 167047659#0 167047659#1 167047659#2 167047659#3 167046966#2 167046970#0 167046970#1 167046970#2 167046970#3 167046970#4 167046970#5 167046970#6 167046967#0 167046967#1 167046967#2 167045920#5 167045921#0 167045921#1 167045921#2 167045921#3 167045921#4 167045921#5 166482094#3 167051610 167051099#4 167051099#5 167051096#0 93548845#5 168279448 168244311"/>
    </vehicle>
    <vehicle id="11" depart="11.00">
        <route edges="-758650090#1 758650090#1 1131593681#1 167051974#2 167051974#3 167051974#4 167051974#5 167051974#6 167051974#7 167051974#8 167051974#9 167051974#10 167051099#1 167051099#2 167051609#0 167051609#1 166458246#0 166458246#1 166458246#2 166458246#3 166482327#0 166482327#1 166482327#2 166482327#3 166482329#5 166482329#6 166482329#0 166482329#1 952411578#0 952411578#1 952411580 166455930 168134387 -168134097#0 -168134097#6 -168134097#5 -167046634#9 -167046634#8 -171996609"/>
    </vehicle>
    <vehicle id="12" depart="12.00">
        <route edges="681302536#2 37142793#6 37142793#7 167454980#5 -1261758411#1 -734352500 -734352501#0"/>
    </vehicle>
    <vehicle id="13" depart="13.00">
        <route edges="-167048848#2 -167048848#1 167048407#0 167048407#1 1069815572 1257759191#0 1257759191#1 1257759191#2 1257759191#3 1257759191#4 1257759191#5 1257759191#6 1257759191#7 167046552#0 167046552#1 167046552#2 167046552#3 167046552#4 167046552#5 167046552#6 167046552#7 167046552#8 167046552#9 167046552#10 167046552#11 168124714#4 168124714#5 168124714#6 168134097#4 168134097#5 -167051092#13"/>
    </vehicle>
    <vehicle id="14" depart="14.00">
        <route edges="331667202#16 -170106270#2 -170106270#1 -170106270#0 170106277#0 170106277#1 166953972#2 166953972#3 166724645#0 166724645#1 1327502623 178823723 1327502620 1213551722 166483575#4 166483575#5 1019893678 166483489#0 166483489#1 365182726 166483064 166483061#5 166483061#6 166483061#7 166483066#0 166483066#1 166483066#2 166482329#2 166482329#3 166482330#0 166482330#1 166482330#2 166458245#0 166458245#1 166458245#2 166458245#3 166482094#2 166479614 166481852#1 166481852#2 166481853 363812438 167449523#0"/>
    </vehicle>
    <vehicle id="15" depart="15.00">
        <route edges="317768264#1 317768264#2 317768264#3 317768264#4 1257759191#2 1257759191#3 1257759191#4 167046553#0 167046553#1 167046553#2 167046553#3 167046553#4 167046553#5 167046553#6 167046553#7 167046553#8 168124716#6 168119162#5 168119164#0 168119164#1 168119164#2 168119164#3 168119164#4 166483061#6 172125337"/>
    </vehicle>
    <vehicle id="16" depart="16.00">
        <route edges="167048052#1 167048052#2 167048052#3 167047662 364215158 364215160 167047659#0 167047659#1 167047659#2 167047659#3 167046966#2 167046970#0 167046970#1 167046970#2 167046970#3 167046970#4 167046970#5 167046970#6 167046967#0 167046967#1 167046967#2 167045920#5 167045921#0 167045921#1 167045921#2 167045921#3 167045921#4 167045921#5 166482094#3 167051610 -167051099#3 -167051099#2 -36897745#3 -36897745#2 -36897745#1 -36897745#0 166443833#9 166443833#10 166443833#11 166443833#12 166443833#13 168108881#1 1315261021 93548830"/>
    </vehicle>
    <vehicle id="17" depart="17.00">
        <route edges="1203898626 -166443833#0 -1203898627#5 -1203898627#4 -1203898627#3 -1203898627#2 -1203898627#1 -1203898627#0 168135545 168135546#1 168136220 166482329#0 166482329#1 952411578#0 952411578#1 952411580 166455930 168134387 -168134097#0 -168134097#6 -168134097#5 -167046634#9 -167046634#8 -167046634#7 -167046634#6 -167046634#5 -167046634#4 -167046634#3 -167046634#2 -167046634#1 -167046634#0 167046549 167045920#2 167045920#3 167045926#0 1202688500 167046969#0 167046969#1 167046969#2 167046969#3 167046969#4 167046969#5 167049315#0 167049315#1 167049315#2 167049315#3 167049315#4"/>
    </vehicle>
    <vehicle id="18" depart="18.00">
        <route edges="324734208#1 317776723#2 317776723#3 317776723#4 167448937#2 167451050#4 167451050#5"/>
    </vehicle>
    <vehicle id="19" depart="19.00">
        <route edges="358333463#0 -1238774742 317776723#8 1214975354#8 1214975354#9 167454980#0 167454980#1 167454980#2 167454980#3 167454980#4 167454980#5 167454980#6 167454980#7 167454980#8 167454980#9 -167047660 167449531#1 167449531#2 167449531#3 167449531#4 167449531#5 167449531#6 167449529 363812439 166481854 166481852#4 -36877671#1 -36877671#0 167051098#7"/>
    </vehicle>
    <vehicle id="21" depart="21.00">
        <route edges="-358334882#2 167050545#4 167050545#5 167050545#6 1257759191#4 1257759191#5 1257759191#6 1257759191#7 167046552#0 167046552#1 167046552#2 167046552#3 -37574240#1"/>
    </vehicle>
    <vehicle id="22" depart="22.00">
        <route edges="-167046552#1 -167046552#0 1257759191#8 1257759191#9 167045920#3 167045920#4 167045920#5 167045921#0 167045921#1 167045921#2 167045921#3 167045921#4 167045921#5 166482094#3 167051610 167051099#4 167051099#5 167051096#0 167051096#1 167051096#2 168279452#1 168279452#2 168279452#3 168108873#0 -334472641#1 -334472641#0"/>
    </vehicle>
    <vehicle id="23" depart="23.00">
        <route edges="-167051092#11 -167051092#10 -167051092#9 -167051092#8 -167051092#7 37358090#20 37358090#21 37358090#22 37358090#23 37358090#24 37358090#25 37358090#26 37358090#27 37358090#28 37358090#29 37358090#30 -1238757597 -37358090#29"/>
    </vehicle>
    <vehicle id="24" depart="24.00">
        <route edges="167466939#1 167466939#2 167466939#3 167466939#4 167466939#5 1081686677 167449523#2 166463277 1307422471 -1307422473 -317938568#4 -317938568#3 -317938568#2 -317938568#1 -317938568#0 -1214975354#9 167451050#0 167451050#1 167451050#2 167451050#3 167451050#4 167049958#6 167049958#7 358333461 -335570667#1 1121147958"/>
    </vehicle>
    <vehicle id="25" depart="25.00">
        <route edges="1127483398 451524466#3 -451524468 -331667202#9 -331667202#8 -331667202#7 -331667202#6 -331667202#5 -331667202#4 -331667202#3 -331667202#2 166940743#1 166940743#2 167044464#0 167044464#1 -324734570#5 -324734570#4"/>
    </vehicle>
    <vehicle id="26" depart="26.00">
        <route edges="-37358090#5 37358090#5 37358090#6 37358090#7 37358090#8 37358090#9 37358090#10 37358090#11 37358090#12 -167046634#2 -167046634#1 -167046634#0 167046549 167045920#2 167045920#3 167045926#0 167045926#1 167046967#0 -167454980#10 -167454980#9 -167454980#8 -167454980#7 -167454980#6 -167454980#5 -167454980#4 -167454980#3 -167454980#2 -167454980#1 -167454980#0 -1214975354#9 -1214975354#8 -1214975354#7 -1214975354#6 -1214975354#5 -1214975354#4 681302149#0"/>
    </vehicle>
    <vehicle id="27" depart="27.00">
        <route edges="168119163 168119166#3 168119162#1 168119162#2 168119162#3 168119162#4 168119162#5 168119164#0 168119164#1 168119164#2 168119164#3 168119164#4 166483061#6 166483061#7 166483066#0 166483066#1 166483066#2 166482329#2 166482329#3 166482330#0 166482330#1 166482330#2 166458245#0 166458245#1 166458245#2 166458245#3 166482094#2 166479614 166481852#1 166481852#2 166481853 363812438 167449529 167449527 167449536#0 167449536#1 167449536#2"/>
    </vehicle>
    <vehicle id="28" depart="28.00">
        <route edges="-172156179#0 172156179#0 172156179#1 166482093#2 166482094#0 166458246#0 166458246#1 166458246#2 166458246#3 166482327#0 166482327#1 166482327#2 166482327#3 166482329#5 166482329#6 166482329#0 166483062#0 166483062#1 -172123715#1 172123715#1"/>
    </vehicle>
    <vehicle id="29" depart="29.00">
        <route edges="-172127428#0 172127428#3 -167046553#5 -167046553#4 -167046553#3 -167046553#2 -167046553#1 167046543#3 167046543#4 167046543#5 167046543#6 167046543#7 167046543#8 167046543#9 167046543#10 167046543#11 167049315#6 1213551725#0 1213551725#1 1327503565 1289350671 1289350673 166954434 1327503567 1213551723#0 1213551723#1 1213551723#2 244329800#0 734329883#4 166954435#3 244329804#0 244329804#1 244329804#2 1262049569 -37574231#2 -37574231#1 -37574231#0 37574230#1 244327259#9 1213551718#0"/>
    </vehicle>
    <vehicle id="30" depart="30.00">
        <route edges="93548853#1 1315261022 168108873#0 -334472641#1 -1055277454 758650090#1 1131593681#1 167051974#2 167051974#3 167051974#4 167051974#5 167051974#6 167051974#7 167051974#8 167051974#9 167051974#10 -167051099#0 -167051099#5 167051098#0 167051098#1 167051098#2 167051098#3 167051098#4 167051098#5 167051098#6 167051098#7 167449536#2 167449536#3 167449536#4 167449536#5 167449536#6 -36926042#2 -36926042#1 -36926042#0 167466939#1 167466939#2 167466939#3"/>
    </vehicle>
    <vehicle id="31" depart="31.00">
        <route edges="167051092#13 168134389 -166455930 -952411580 952411581 166482329#3 166482329#4 166482329#5 168135546#0 168135546#1 168136226#0 168136226#1 168136226#2"/>
    </vehicle>
    <vehicle id="32" depart="32.00">
        <route edges="331667202#13 -331667202#13 -331667202#12 -331667202#11 -331667202#10 -331667202#9 -331667202#8 -331667202#7 -331667202#6 -331667202#5 -331667202#4 -331667202#3 166940748#2 166944690#0 166944690#1 244329796#2 244329796#3"/>
    </vehicle>
    <vehicle id="33" depart="33.00">
        <route edges="-358334883#0 167050545#5 167050545#6 1257759191#4 167046553#0 167046553#1 167046553#2 -37358090#6 -37358090#5 -37358090#4 -37358090#3 681302526 -1262069408#0"/>
    </vehicle>
    <vehicle id="34" depart="34.00">
        <route edges="-681302528#2 681302528#2 167046543#8 -317768264#5 1257759191#2 1257759191#3 1257759191#4 1257759191#5 1257759191#6 1257759191#7 1257759191#8 1257759191#9 167045920#3 167045926#0 167045926#1 167046967#0 -167454980#10 -167454980#9 -167454980#8 -167454980#7 -167454980#6 -167454980#5 -37142793#7"/>
    </vehicle>
    <vehicle id="35" depart="35.00">
        <route edges="-331667202#17 -331667202#16 -331667202#15 -331667202#14 -331667202#13 -331667202#12 1054636897 1214976886 1214976885 -167044123#6 -167044123#5 175183620 1213551724 167046968#0 1257759191#0 1257759191#1 1257759191#2 1257759191#3 167050545#7 167046543#4 681302529"/>
    </vehicle>
    <vehicle id="36" depart="36.00">
        <route edges="36907637 166955834#8 166955834#9 166955834#10 166955834#0 167451051 317776723#0 317776723#1 317776723#2 317776723#3 317776723#4 317776723#5 317776723#6 317776723#7 317776723#8 -1214975354#7 -1214975354#6 -1214975354#5 -1214975354#4 -1214975354#3 451819214#0 451819214#1 451819214#2 -451819214#2"/>
    </vehicle>
    <vehicle id="37" depart="37.00">
        <route edges="168124714#1 168124714#2 168124714#3 -167046552#11 -167046552#10 -167046552#9 -167046552#8 -167046552#7 -167046552#6 -167046552#5 -167046552#4 -167046552#3 -167046552#2 -167046552#1 167046543#0 167046543#1 167046543#2 167046543#3 -167050545#7 1257759191#4"/>
    </vehicle>
    <vehicle id="38" depart="38.00">
        <route edges="37574240#1 167046552#4 167046552#5 167046552#6 167046552#7 167046552#8 167046552#9 167046552#10 167046552#11 168124714#4 168124714#5 168124714#6 168134097#4 168134097#5 168134389 -166455930 -952411580 952411581 166482329#3 166482330#0"/>
    </vehicle>
    <vehicle id="39" depart="39.00">
        <route edges="-37358090#31 -37358090#30 -37358090#29 -37358090#28 36897745#2 36897745#3 167051099#2 167051609#0 167051609#1 166482094#1 167051094#0 167051094#1 167051094#2 167051094#3 167051094#4 167045920#1 167045920#2 167045920#3 167045926#0 1202688500 167046969#0 167046969#1 358334881 358334882#0 -362907448"/>
    </vehicle>
    <vehicle id="40" depart="40.00">
        <route edges="167051094#1 167051097#1 167045921#4 167045921#5 166482094#3 166482094#0 166458246#0 166458246#1 166458246#2 166458246#3 166482327#0 166482327#1 166482327#2 166482327#3 166482329#5 168135546#0 168135546#1 168136226#0 168136226#1 168136226#2 168135415#2 -36929317"/>
    </vehicle>
    <vehicle id="41" depart="41.00">
        <route edges="167055711 167051974#0 167051974#1 167051974#2 167051974#3 167051974#4 167051974#5 167051974#6 167051974#7 167051974#8 167051974#9 167051974#10 167051099#1 167051099#2 167051609#0 167051609#1 166482094#1 167051094#0 167051094#1 167051094#2 167051094#3 167051094#4 167045920#1 167045920#2 167045920#3 167045926#0 1202688500 167046969#0 167046969#1 167046969#2 167046969#3 167046969#4 167046969#5 167046966#0 167048052#0 167048052#1 167048052#2 167048052#3 167047662 167047653#0 167047653#1 167047653#2 1258480013#0 1258480013#1 166940748#0 166940748#1 166940748#2 166941478#0 166941478#1 244327259#8 -37574230#1 37574231#0 37574231#1 37574231#2"/>
    </vehicle>
    <vehicle id="42" depart="42.00">
        <route edges="1257759191#8 1257759191#9 167045920#3 167045920#4 167045920#5 167045920#6 167045920#0 167045920#1 1069815570 167046543#0 167046543#1 167046543#2 167046543#3 167046543#4 167046543#5 167046543#6 167046543#7 167046543#8 167046543#9 167046543#10 167046543#11 167049315#6 1213551725#0 1213551725#1 167043963#0 167043963#1 167044123#6 -1214976885 -1214976886 -1054636897 331667202#12 331667202#13 -331667202#13"/>
    </vehicle>
    <vehicle id="43" depart="43.00">
        <route edges="992663493 1262075257 1262075255 166483489#0 166483489#1 365182726 166483064 168119166#0 -167046552#14 -167046552#13 -167046552#12 -167046552#11 -167046552#10 -167046552#9 -167046552#8 -167046552#7 -167046552#6 -167046552#5 -167046552#4 -167046552#3 -167046552#2 -167046552#1 167046543#0"/>
    </vehicle>
    <vehicle id="44" depart="44.00">
        <route edges="-167048408 755783558#0 755783558#1 167048407#0 167048407#1 1069815572 1257759191#0 1257759191#1 1257759191#2 1257759191#3 1257759191#4 1257759191#5 1257759191#6 1257759191#7 1257759191#8 1257759191#9 167045920#3 167045920#4 167045920#5 167045921#0 167045921#1 167045921#2 167045921#3 167045921#4 167045921#5 166482094#3 167051610 -167051099#3 -167051099#2 -36897745#3 -36897745#2 -36897745#1 -36897745#0 166443833#9 166443833#10 166443833#11 -166443833#11"/>
    </vehicle>
    <vehicle id="46" depart="46.00">
        <route edges="244327259#0 244327259#1 244327259#2 244327259#3 244327259#4 166940739#0 166940739#1 166940743#0 166940743#1 166940743#2 -1258480013#2 -1258480013#1 -1258480013#0 167047656#0 167047656#1 167047656#2 364215160 167047659#0 167047659#1 167047659#2 167047659#3 167046966#2 167046970#0 167046970#1 167046970#2 167046970#3 167046970#4 167046970#5 167046970#6 167046967#0 167046967#1 167046967#2 167045920#5 167045920#6 167045920#0 167046551 167046634#0 167046634#1 -1194686009 -37574236#3 1308137532"/>
    </vehicle>
    <vehicle id="47" depart="47.00">
        <route edges="-166955901#3 -166955901#2 -166955901#1 -166955901#0 166955833#1 167047736 166940748#0 166940748#1 166940748#2 166941478#0 166941478#1 244327259#8 244327259#9 1315284314 1213551720"/>
    </vehicle>
    <vehicle id="48" depart="48.00">
        <route edges="992663487 167048052#3 167047662 364215158 364215160 167047659#0 167047659#1 167047659#2 167047659#3 167046966#2 167046970#0 167046970#1 167050545#2 167046969#3 167046969#4 167046969#5"/>
    </vehicle>
    <vehicle id="49" depart="49.00">
        <route edges="755094606#1 -451542451#0 167046968#2 167046968#3 167046968#4 167046968#5 167046966#1 167046966#2 167046970#0 167046970#1 167046970#2 167046970#3 167046970#4 167046970#5 167046970#6 167046967#0 167046967#1 167046967#2 167045920#5 167045921#0 167045921#1 167045921#2 167045921#3 167045921#4 167045921#5 166482094#3 166482094#0 166458246#0 166458246#1 166458246#2 37358090#23 37358090#24 37358090#25 37358090#26 37358090#27 36897745#2"/>
    </vehicle>
    <vehicle id="50" depart="50.00">
        <route edges="-1194686009 1194686010 37358090#14 37358090#15 37358090#16 37358090#17 37358090#18 37358090#19 37358090#20 37358090#21 37358090#22 37358090#23 37358090#24 37358090#25 37358090#26 37358090#27 37358090#28 37358090#29 37358090#30 37358090#31 37358090#32 37358090#33 -171753775 171753776#3"/>
    </vehicle>
    <vehicle id="51" depart="51.00">
        <route edges="168135415#0 172123715#0 172123715#1 166483062#2 166483061#0 166483061#1 166483061#2 166483061#3 166483061#4 166483061#5 166483061#6 172125337 -168134097#1 -168134097#0 -168134097#6 -168134097#5 -167046634#9 -167046634#8 -167046634#7 -167046634#6 -167046634#5 -167046634#4 -167046634#3 -167046634#2 -167046634#1 -167046634#0 167046549 167045920#2 167045920#3 167045926#0 1202688500 167046969#0 167046969#1 167046969#2 167046969#3 167046969#4 167046969#5 167046966#0 167048052#0 167048052#1 167048052#2 167048052#3 167047662 364215158 364215160 167047659#0"/>
    </vehicle>
    <vehicle id="52" depart="52.00">
        <route edges="-37358090#5 37358090#5 37358090#6 37358090#7 37358090#8 37358090#9 37358090#10 37358090#11 37358090#12 -167046634#2 -167046634#1 -167046634#0 167046549 167045920#2 167045920#3 167045926#0 167045926#1 167046967#0 167449531#0 167449531#1 167449531#2 167449531#3 167449531#4 167449531#5 167449531#6 167449529 167449527 167449536#0 167449536#1 167449536#2 167449536#3 167449536#4 167449536#5 167449536#6 -36926042#2 -36926042#1 -36926042#0 167466939#1 167466939#2 167466939#3 167466939#4 167466939#5"/>
    </vehicle>
    <vehicle id="53" depart="53.00">
        <route edges="-167449536#4 -167449536#3 -167449536#2 -167051098#7 -167051098#6 -167051098#5 -167051098#4 -167051098#3 -167051098#2 -167051098#1 -167051098#0 -167051099#4 -167051099#3 -167051099#2 -36897745#3 -36897745#2 -36897745#1 -36897745#0 166443833#9 166443833#10 166443833#11 166443833#12"/>
    </vehicle>
    <vehicle id="54" depart="54.00">
        <route edges="166481854 166481852#4 166481852#5 166482093#0 166482093#1 166482093#2 166482094#0 166482094#1 167051094#0 167051094#1 167051094#2 167051094#3 167051094#4 167045920#1 1069815570 167046543#0 167046543#1 167046543#2 167046543#3 167046543#4 167046543#5 167046543#6 167046543#7 167046543#8 167046543#9 167046543#10 167046543#11 167049315#6 1213551725#0 1213551725#1 1327503565 1289350671 1289350673 166954434 1327503567 1213551723#0 1213551723#1 1213551723#2 244329800#0 734329883#4 734329883#5 734329883#6"/>
    </vehicle>
    <vehicle id="55" depart="55.00">
        <route edges="36907637 166955834#8 166955834#9 166955834#10 166955834#0 166955834#1 166955834#2 -167048967#3 -167048967#2 -167048967#1 -167048967#0 364215160 167047659#0 167047659#1 167047659#2 167047659#3 167046966#2 167046970#0 167046970#1 167046970#2 167046970#3 167046970#4 167046970#5 167046970#6 167046967#0 167046967#1 167046967#2 167045920#5 167045920#6 167045920#0 167046551 167046634#0 167046634#1 167046634#2 167046634#3 167046634#4 167046634#5 167046634#6 167046634#7 167046634#8 167046634#9 168134097#5 168134097#6 168134097#0 168134500 168134499 166483061#8 166483061#0 168135415#0 168135415#1 168135415#2 -36929317"/>
    </vehicle>
    <vehicle id="56" depart="56.00">
        <route edges="167044464#2 -1194691793#1 -1194691793#0 166955832#0 166955832#1 166955832#2 166955832#3 166955834#7 166955834#8 166955834#9 166955834#10 166955834#0 166955834#1 166955834#2 -167048967#3 -167048967#2 -167048967#1 -167048967#0 364215160 167047659#0 167047659#1 167047659#2 167047659#3 167046966#2 167046966#3 167049315#0 167049315#1 167049315#2 167049315#3 167049315#4 1257759191#1 1257759191#2 1257759191#3 1257759191#4 167046553#0 167046553#1 167046553#2 167046553#3 167046553#4 167046553#5 -172127428#3 -172127428#2 -172127428#1"/>
    </vehicle>
    <vehicle id="57" depart="57.00">
        <route edges="37574236#1 -328552372 167051094#3 167051094#4 167045920#1 167045920#2 167045920#3 167045926#0 167045926#1 167046967#0 167449531#0 167449531#1 167449531#2 167449531#3 167449531#4 167449531#5 167449531#6 167449529 167449527 167449536#0 167449536#1 167449536#2 167449536#3 167449536#4 167449536#5 167449536#6 -36926042#2 -36926042#1 36926042#1 36926042#2"/>
    </vehicle>
    <vehicle id="58" depart="58.00">
        <route edges="-451819212#0 317938568#2 317938568#3 317938568#4 1307422473 1307422472#0 1307422472#1 1307422472#2 364386314 364386312 295981931 166463530 167449520#0 -167466939#5 -167466939#4 -167466939#3 -167466939#2 -167466939#1 167466939#1 167466939#2"/>
    </vehicle>
    <vehicle id="59" depart="59.00">
        <route edges="167450224#0 167450224#1 167453444#3 167452390#2 167450221 364386312 295981931 166463530 167449520#0 167449520#1 167449520#2 167449520#3 363812439 166481854 166481852#4 166481852#5 166482093#0 166482093#1 166482093#2 166482094#0 166482094#1 167051094#0 167051092#0 -171995612"/>
    </vehicle>
    <vehicle id="60" depart="60.00">
        <route edges="172127429#1 -172127429#1 -172127429#0 168126211#1 168132492#0 168132492#1 168132492#2 168132496#6 168132496#7 168132496#8 168132496#9 168132496#10 168132496#11 168132496#12 168132496#13 168132496#14 168132496#15 168132496#16 167046968#0 167046968#1 167046968#2 167046968#3 167046968#4 167046968#5 167048052#0 167048052#1"/>
    </vehicle>
    <vehicle id="61" depart="61.00">
        <route edges="175183622#3 331667202#0 331667202#1 166940743#1 166940743#2 -1258480013#2 -1258480013#1 -1258480013#0 167047656#0 167047656#1 167047656#2 364215160 167047659#0 167047659#1 167047659#2 167047659#3 167046966#2 167046970#0 167046970#1 167046970#2"/>
    </vehicle>
    <vehicle id="62" depart="62.00">
        <route edges="-1055277454 758650090#1 1131593681#1 167051974#2 167051974#3 167051974#4 167051974#5 167051974#6 167051974#7 167051974#8 167051974#9 167051974#10 167051099#1 167051099#2 167051609#0 167051609#1 166482094#1 167051094#0 167051094#1 167051094#2 167051094#3 167051094#4 167045920#1 1069815570 167046543#0 167046543#1 167046543#2 167046543#3 167046543#4 167046543#5 167046543#6 167046543#7 -681302528#2 1262069408#0 -681302526"/>
    </vehicle>
    <vehicle id="63" depart="63.00">
        <route edges="-1258090143#1 -1258090143#0 36926042#1 36926042#2 -167449536#6 -167449536#5 -167449536#4 -167449536#3 -167449536#2 -167449536#1 -167449536#0 167449539 363812440 363812438 167449523#0 167449523#1 167449523#2 166463277 1307422471 -1307422473 -317938568#4 -317938568#3 -317938568#2 -317938568#1 -317938568#0 -1214975354#9 -1214975354#8 -1214975354#7 -1214975354#6 -1214975354#5 -1214975354#4 -1214975354#3 451819214#0 451819215"/>
    </vehicle>
    <vehicle id="64" depart="64.00">
        <route edges="36907637 166955834#8 166955834#9 166955834#10 166955834#0 166955834#1 166955834#2 166955834#3 166955833#0 166955833#1 167047736 166940748#0 166940748#1 331667202#3 331667202#4 331667202#5 331667202#6 331667202#7 331667202#8 331667202#9 331667202#10 331667202#11 331667202#12 331667202#13 331667202#14 331667202#15 331667202#16 331667202#17"/>
    </vehicle>
    <vehicle id="65" depart="65.00">
        <route edges="-451820858 37574240#1 -167046552#3 -167046552#2 -167046552#1 167046543#0 167046543#1 167046543#2 167046543#3 167046543#4 167046543#5 167046543#6 167046543#7 167046543#8 167046543#9 167046543#10 167046543#11 167049315#6 1213551725#0 1213551725#1 1327503565 1289350671 1289350673 166954434 1327503567 1213551723#0 1213551723#1 1213551723#2 244329800#0 734329883#4 734329883#5 734329883#6 244329796#0 166952951 -166943453#1"/>
    </vehicle>
    <vehicle id="66" depart="66.00">
        <route edges="36907637 166955834#8 166955834#9 166955834#10 166955834#0 166955834#1 166955834#2 -167048967#3 -167048967#2 -167048967#1 -167048967#0 364215160 167047659#0 167047659#1 167047659#2 167047659#3 167046966#2 167046970#0 167046970#1 167046970#2 167046970#3 681302536#1"/>
    </vehicle>
    <vehicle id="67" depart="67.00">
        <route edges="-167046553#4 -167046553#3 -167046553#2 -167046553#1 167046543#3 167046543#4 167046543#5 167046543#6 167046543#7 167046543#8 167046543#9 167046543#10 167046543#11 167049315#6 168132496#16 1069815571#0 1069815571#1 1069815571#2 1069815571#3 754807128#0 754807128#1 167048405 -167044123#3 -167044123#2 -167044123#1 -167044123#0 1258480013#1 1258480013#2 166940743#3 29376357#0 166955899 166955833#1"/>
    </vehicle>
    <vehicle id="68" depart="68.00">
        <route edges="-167044123#2 -167044123#1 -167044123#0 -1258480013#0 167047656#0 167047656#1 167047656#2 364215160 167047659#0 167047659#1 167047659#2 167047659#3 167046966#2 167046970#0 167046970#1 167046970#2 167046970#3 167046970#4 167046970#5 167046970#6 167046967#0 167449531#0 167449531#1 167449531#2 167449531#3 167449531#4 167449531#5 167449531#6 167449529 167449527 167449536#0 167449536#1 167449536#2 167449536#3 167449536#4 167449536#5 167449536#6 177266142#0 177266142#1"/>
    </vehicle>
    <vehicle id="69" depart="69.00">