<routes>
    <vType id="car" accel="1.0" decel="5.0" sigma="0.5" length="5" maxSpeed="50"/>
    <vehicle id="1000" type="car" depart="1" color="1,0,0">
    <route edges="166482327#2 166482327#3 166482329#5 166482329#6 166482329#0 166482329#1 166482329#2 166482329#3 -166456920#2 171984588 1309809534 -167051092#11 -167051092#10 -167051092#9 -167051092#8 -167051092#7 -37358090#19 -37358090#18 -37358090#17 -37358090#16 -37358090#15 -37358090#14 -37358090#13 -167046634#2 -167046634#1 -167046634#0 167046549 167045920#2 167045920#3 167045926#0 167045926#1 167046967#0 167449531#0 167449531#1"/></vehicle>
</routes>