<?xml version="1.0" encoding="UTF-8"?>

<!-- generated on 2025-04-03 21:27:47.326704 by randomTrips.py v1_22_0+0002-63e50f52594
<configuration>
    <net-file value="test.net.xml"/>
    <route-file value="map.rou.xml"/>
    <length value="True"/>
    <validate value="True"/>
    <end value="1000.0"/>
</configuration>
-->

<!-- generated on 2025-04-03 21:27:46 by Eclipse SUMO duarouter Version 1.22.0
<duarouterConfiguration xmlns:xsi="http://www.w3.org/2001/XMLSchema-instance" xsi:noNamespaceSchemaLocation="http://sumo.dlr.de/xsd/duarouterConfiguration.xsd">

    <input>
        <net-file value="test.net.xml"/>
        <route-files value="trips.trips.xml"/>
    </input>

    <output>
        <output-file value="trips.trips.xml.tmp"/>
        <alternatives-output value="NUL"/>
        <write-trips value="true"/>
    </output>

    <time>
        <begin value="0"/>
        <end value="1000.0"/>
    </time>

    <report>
        <no-warnings value="true"/>
        <ignore-errors value="true"/>
        <no-step-log value="true"/>
    </report>

</duarouterConfiguration>
-->

<routes xmlns:xsi="http://www.w3.org/2001/XMLSchema-instance" xsi:noNamespaceSchemaLocation="http://sumo.dlr.de/xsd/routes_file.xsd">
    <trip id="0" depart="0.00" from="167466939#4" to="-1258480013#0"/>
    <trip id="1" depart="1.00" from="-37574240#0" to="-331667202#16"/>
    <trip id="2" depart="2.00" from="171996607#0" to="168135414"/>
    <trip id="3" depart="3.00" from="37142793#7" to="-167048848#2"/>
    <trip id="4" depart="4.00" from="1307434578" to="-1262062895"/>
    <trip id="5" depart="5.00" from="-331667202#7" to="167045921#1"/>
    <trip id="6" depart="6.00" from="-1261813989" to="-317938568#0"/>
    <trip id="7" depart="7.00" from="168119164#1" to="167048848#2"/>
    <trip id="8" depart="8.00" from="-334472641#1" to="167052576#1"/>
    <trip id="9" depart="9.00" from="317776721#1" to="-1121147959"/>
    <trip id="10" depart="10.00" from="29376357#1" to="168244311"/>
    <trip id="11" depart="11.00" from="-758650090#1" to="-171996609"/>
    <trip id="12" depart="12.00" from="681302536#2" to="-734352501#0"/>
    <trip id="13" depart="13.00" from="-167048848#2" to="-167051092#13"/>
    <trip id="14" depart="14.00" from="331667202#16" to="167449523#0"/>
    <trip id="15" depart="15.00" from="317768264#1" to="172125337"/>
    <trip id="16" depart="16.00" from="167048052#1" to="93548830"/>
    <trip id="17" depart="17.00" from="1203898626" to="167049315#4"/>
    <trip id="18" depart="18.00" from="324734208#1" to="167451050#5"/>
    <trip id="19" depart="19.00" from="358333463#0" to="167051098#7"/>
    <trip id="21" depart="21.00" from="-358334882#2" to="-37574240#1"/>
    <trip id="22" depart="22.00" from="-167046552#1" to="-334472641#0"/>
    <trip id="23" depart="23.00" from="-167051092#11" to="-37358090#29"/>
    <trip id="24" depart="24.00" from="167466939#1" to="1121147958"/>
    <trip id="25" depart="25.00" from="1127483398" to="-324734570#4"/>
    <trip id="26" depart="26.00" from="-37358090#5" to="681302149#0"/>
    <trip id="27" depart="27.00" from="168119163" to="167449536#2"/>
    <trip id="28" depart="28.00" from="-172156179#0" to="172123715#1"/>
    <trip id="29" depart="29.00" from="-172127428#0" to="1213551718#0"/>
    <trip id="30" depart="30.00" from="93548853#1" to="167466939#3"/>
    <trip id="31" depart="31.00" from="167051092#13" to="168136226#2"/>
    <trip id="32" depart="32.00" from="331667202#13" to="244329796#3"/>
    <trip id="33" depart="33.00" from="-358334883#0" to="-1262069408#0"/>
    <trip id="34" depart="34.00" from="-681302528#2" to="-37142793#7"/>
    <trip id="35" depart="35.00" from="-358334883#0" to="681302529"/>
    <trip id="36" depart="36.00" from="36907637" to="-451819214#2"/>
    <trip id="37" depart="37.00" from="168124714#1" to="1257759191#4"/>
    <trip id="38" depart="38.00" from="37574240#1" to="166482330#0"/>
    <trip id="39" depart="39.00" from="-37358090#31" to="-362907448"/>
    <trip id="40" depart="40.00" from="167051094#1" to="-36929317"/>
    <trip id="41" depart="41.00" from="167055711" to="37574231#2"/>
    <trip id="42" depart="42.00" from="1257759191#8" to="-331667202#13"/>
    <trip id="43" depart="43.00" from="992663493" to="167046543#0"/>
    <trip id="44" depart="44.00" from="-167048408" to="-166443833#11"/>
    <trip id="46" depart="46.00" from="244327259#0" to="1308137532"/>
    <trip id="47" depart="47.00" from="-166955901#3" to="1213551720"/>
    <trip id="48" depart="48.00" from="992663487" to="167046969#5"/>
    <trip id="49" depart="49.00" from="755094606#1" to="36897745#2"/>
    <trip id="50" depart="50.00" from="-1194686009" to="171753776#3"/>
    <trip id="51" depart="51.00" from="168135415#0" to="167047659#0"/>
    <trip id="52" depart="52.00" from="-37358090#5" to="167466939#5"/>
    <trip id="53" depart="53.00" from="-167449536#4" to="166443833#12"/>
    <trip id="54" depart="54.00" from="166481854" to="734329883#6"/>
    <trip id="55" depart="55.00" from="36907637" to="-36929317"/>
    <trip id="56" depart="56.00" from="167044464#2" to="-172127428#1"/>
    <trip id="57" depart="57.00" from="37574236#1" to="36926042#2"/>
    <trip id="58" depart="58.00" from="-451819212#0" to="167466939#2"/>
    <trip id="59" depart="59.00" from="167450224#0" to="-171995612"/>
    <trip id="60" depart="60.00" from="172127429#1" to="167048052#1"/>
    <trip id="61" depart="61.00" from="175183622#3" to="167046970#2"/>
    <trip id="62" depart="62.00" from="-1055277454" to="-681302526"/>
    <trip id="63" depart="63.00" from="-1258090143#1" to="451819215"/>
    <trip id="64" depart="64.00" from="36907637" to="-358334883#0"/>
    <trip id="65" depart="65.00" from="-451820858" to="-166943453#1"/>
    <trip id="66" depart="66.00" from="36907637" to="681302536#1"/>
    <trip id="67" depart="67.00" from="-167046553#4" to="166955833#1"/>
    <trip id="68" depart="68.00" from="-167044123#2" to="177266142#1"/>
    <trip id="69" depart="69.00" from="172127552#1" to="-170106259#0"/>
    <trip id="70" depart="70.00" from="166943453#3" to="167048967#3"/>
    <trip id="71" depart="71.00" from="-37358090#31" to="36929317"/>
    <trip id="72" depart="72.00" from="1308146012#1" to="-327199765"/>
    <trip id="73" depart="73.00" from="167048407#1" to="172125337"/>
    <trip id="74" depart="74.00" from="-331667202#16" to="-451819212#0"/>
    <trip id="75" depart="75.00" from="992663484" to="168119165#2"/>
    <trip id="76" depart="76.00" from="166456920#2" to="167046553#1"/>
    <trip id="77" depart="77.00" from="-167466939#1" to="-331667202#16"/>
    <trip id="78" depart="78.00" from="-758629175#1" to="167052576#1"/>
    <trip id="79" depart="79.00" from="-358335205" to="-331667202#13"/>
    <trip id="80" depart="80.00" from="-167044123#4" to="167454980#9"/>
    <trip id="81" depart="81.00" from="-358334883#0" to="451524169"/>
    <trip id="82" depart="82.00" from="358333461" to="-167044123#9"/>
    <trip id="83" depart="83.00" from="-36897745#2" to="168132497#6"/>
    <trip id="84" depart="84.00" from="-358334883#0" to="-170106270#1"/>
    <trip id="85" depart="85.00" from="451819210" to="167051096#0"/>
    <trip id="86" depart="86.00" from="166943453#0" to="244329796#5"/>
    <trip id="87" depart="87.00" from="317768264#2" to="-317768264#0"/>
    <trip id="88" depart="88.00" from="-167048967#3" to="166441887"/>
    <trip id="89" depart="89.00" from="1308254126" to="166483066#1"/>
    <trip id="90" depart="90.00" from="171753776#3" to="168132501#4"/>
    <trip id="91" depart="91.00" from="93548840#1" to="-167051092#7"/>
    <trip id="92" depart="92.00" from="1258090143#1" to="-755094606#0"/>
    <trip id="93" depart="93.00" from="358333463#0" to="-36877671#0"/>
    <trip id="94" depart="94.00" from="-328550349" to="166463530"/>
    <trip id="95" depart="95.00" from="1307434578" to="-37358090#31"/>
    <trip id="96" depart="96.00" from="-36929317" to="451819210"/>
    <trip id="97" depart="97.00" from="166463277" to="36897745#3"/>
    <trip id="98" depart="98.00" from="167049958#2" to="-166443833#9"/>
    <trip id="99" depart="99.00" from="992687639" to="-358334883#0"/>
    <trip id="100" depart="100.00" from="734401614#0" to="451819214#0"/>
    <trip id="101" depart="101.00" from="331667202#16" to="-172123715#1"/>
    <trip id="102" depart="102.00" from="166955833#1" to="-328550349"/>
    <trip id="103" depart="103.00" from="1258090143#0" to="-166943453#3"/>
    <trip id="104" depart="104.00" from="1203898627#1" to="992658046"/>
    <trip id="105" depart="105.00" from="-37358090#32" to="244329796#5"/>
    <trip id="106" depart="106.00" from="166482093#1" to="1308254126"/>
    <trip id="107" depart="107.00" from="681302536#2" to="992663494#1"/>
    <trip id="108" depart="108.00" from="167051092#0" to="170106270#4"/>
    <trip id="109" depart="109.00" from="-172125683#0" to="-451524468"/>
    <trip id="110" depart="110.00" from="734401614#0" to="167051609#1"/>
    <trip id="111" depart="111.00" from="167048848#2" to="172129856#1"/>
    <trip id="112" depart="112.00" from="-166481851#4" to="167051974#7"/>
    <trip id="113" depart="113.00" from="167045921#1" to="358334883#1"/>
    <trip id="114" depart="114.00" from="-172126098#0" to="734401614#0"/>
    <trip id="115" depart="115.00" from="-167046552#11" to="-172156179#0"/>
    <trip id="116" depart="116.00" from="167449499#1" to="168135414"/>
    <trip id="117" depart="117.00" from="-36877671#0" to="-167466939#3"/>
    <trip id="118" depart="118.00" from="37142793#1" to="-362907448"/>
    <trip id="119" depart="119.00" from="167449499#1" to="167451050#5"/>
    <trip id="120" depart="120.00" from="1289350672" to="167051974#7"/>
    <trip id="121" depart="121.00" from="167046968#4" to="474031501"/>
    <trip id="122" depart="122.00" from="-331667202#16" to="170106270#2"/>
    <trip id="123" depart="123.00" from="-36897745#3" to="1257759191#6"/>
    <trip id="124" depart="124.00" from="168132497#5" to="-451542452#0"/>
    <trip id="125" depart="125.00" from="-681302529" to="172130122#2"/>
    <trip id="126" depart="126.00" from="-167044123#6" to="166482327#2"/>
    <trip id="127" depart="127.00" from="992663494#1" to="992663499"/>
    <trip id="128" depart="128.00" from="-167044123#6" to="-328550349"/>
    <trip id="129" depart="129.00" from="-37358090#32" to="451820856"/>
    <trip id="130" depart="130.00" from="36926042#0" to="37142793#7"/>
    <trip id="131" depart="131.00" from="1121147959" to="-171996616#2"/>
    <trip id="132" depart="132.00" from="327199764" to="168279448"/>
    <trip id="133" depart="133.00" from="167450752#7" to="992658051"/>
    <trip id="135" depart="135.00" from="317776723#6" to="-451542451#1"/>
    <trip id="136" depart="136.00" from="168132496#0" to="681302150"/>
    <trip id="137" depart="137.00" from="-170106270#2" to="-167466939#0"/>
    <trip id="138" depart="138.00" from="-167051098#3" to="167049958#1"/>
    <trip id="139" depart="139.00" from="-37574231#2" to="167449531#1"/>
    <trip id="140" depart="140.00" from="170106270#2" to="-324734208#0"/>
    <trip id="141" depart="141.00" from="167466939#0" to="-36929317"/>
    <trip id="142" depart="142.00" from="167043963#1" to="451524169"/>
    <trip id="143" depart="143.00" from="331667202#16" to="-167048967#3"/>
    <trip id="144" depart="144.00" from="1308254126" to="-37358090#24"/>
    <trip id="145" depart="145.00" from="-1121147958" to="244327259#4"/>
    <trip id="146" depart="146.00" from="167466939#1" to="-36926042#2"/>
    <trip id="147" depart="147.00" from="171996618#3" to="167049315#4"/>
    <trip id="148" depart="148.00" from="166441243" to="-1136917573#1"/>
    <trip id="149" depart="149.00" from="-167044123#8" to="37358090#10"/>
    <trip id="150" depart="150.00" from="37358090#33" to="167048848#2"/>
    <trip id="151" depart="151.00" from="328550349" to="167051974#7"/>
    <trip id="152" depart="152.00" from="-171995614" to="-170106259#0"/>
    <trip id="153" depart="153.00" from="-474031501" to="37574236#0"/>
    <trip id="154" depart="154.00" from="244327259#4" to="36897745#2"/>
    <trip id="155" depart="155.00" from="37358090#19" to="-326192473#0"/>
    <trip id="156" depart="156.00" from="-36929317" to="-167051098#6"/>
    <trip id="157" depart="157.00" from="175184616#0" to="37358090#12"/>
    <trip id="158" depart="158.00" from="1261758411#0" to="167451050#6"/>
    <trip id="159" depart="159.00" from="-172125682" to="451819216"/>
    <trip id="160" depart="160.00" from="358333511" to="93548830"/>
    <trip id="161" depart="161.00" from="317776721#5" to="37358088#2"/>
    <trip id="162" depart="162.00" from="-1261798862" to="172126967"/>
    <trip id="163" depart="163.00" from="-744539877" to="451820771"/>
    <trip id="164" depart="164.00" from="244329796#3" to="36907635#1"/>
    <trip id="165" depart="165.00" from="317776721#5" to="-37142793#4"/>
    <trip id="166" depart="166.00" from="178823723" to="-167449536#6"/>
    <trip id="167" depart="167.00" from="368910377#1" to="368910377#0"/>
    <trip id="168" depart="168.00" from="-358333462#1" to="331667202#1"/>
    <trip id="169" depart="169.00" from="166483062#1" to="-451819206"/>
    <trip id="170" depart="170.00" from="244327259#4" to="-331667202#3"/>
    <trip id="171" depart="171.00" from="-1261758411#1" to="-317776721#2"/>
    <trip id="172" depart="172.00" from="-734352499" to="36907635#1"/>
    <trip id="173" depart="173.00" from="734341871" to="-37358090#33"/>
    <trip id="174" depart="174.00" from="167466939#5" to="1258090143#1"/>
    <trip id="176" depart="176.00" from="451819213" to="-167466939#0"/>
    <trip id="177" depart="177.00" from="755094606#0" to="-172127428#1"/>
    <trip id="178" depart="178.00" from="734329883#2" to="-37142793#0"/>
    <trip id="179" depart="179.00" from="-167051098#7" to="166443833#11"/>
    <trip id="180" depart="180.00" from="171753776#3" to="-451819213"/>
    <trip id="181" depart="181.00" from="167449536#2" to="167046543#5"/>
    <trip id="182" depart="182.00" from="1213551719" to="167051098#4"/>
    <trip id="183" depart="183.00" from="-37358088#0" to="170106259#5"/>
    <trip id="184" depart="184.00" from="-1076305648#0" to="451819212#1"/>
    <trip id="185" depart="185.00" from="167048407#0" to="170106282#1"/>
    <trip id="186" depart="186.00" from="171997760" to="168132499"/>
    <trip id="187" depart="187.00" from="1069815571#1" to="-167044123#7"/>
    <trip id="188" depart="188.00" from="168132496#14" to="-681302536#2"/>
    <trip id="189" depart="189.00" from="-681302528#0" to="358333463#6"/>
    <trip id="190" depart="190.00" from="170106270#2" to="-451542452#1"/>
    <trip id="191" depart="191.00" from="-492985915#1" to="1261823825"/>
    <trip id="192" depart="192.00" from="1258090143#1" to="-451524466#4"/>
    <trip id="193" depart="193.00" from="-168132501#3" to="1307405094#0"/>
    <trip id="194" depart="194.00" from="451819214#2" to="168135414"/>
    <trip id="195" depart="195.00" from="37358090#3" to="167451050#0"/>
    <trip id="196" depart="196.00" from="-451819214#2" to="167048967#0"/>
    <trip id="197" depart="197.00" from="-1055277454" to="-37574236#0"/>
    <trip id="198" depart="198.00" from="166443220" to="167051610"/>
    <trip id="199" depart="199.00" from="168119166#1" to="166483065#0"/>
    <trip id="200" depart="200.00" from="166458246#2" to="-328550349"/>
    <trip id="201" depart="201.00" from="166943453#0" to="37574240#0"/>
    <trip id="202" depart="202.00" from="244327259#4" to="-172125775#6"/>
    <trip id="203" depart="203.00" from="-167046553#2" to="167046552#4"/>
    <trip id="204" depart="204.00" from="167466939#0" to="-734341871"/>
    <trip id="205" depart="205.00" from="317776723#8" to="172129867#1"/>
    <trip id="206" depart="206.00" from="168132497#9" to="-331667202#16"/>
    <trip id="207" depart="207.00" from="-331667202#13" to="-1258090144#1"/>
    <trip id="208" depart="208.00" from="-36926042#0" to="166943453#0"/>
    <trip id="209" depart="209.00" from="331667202#16" to="-167044464#1"/>
    <trip id="210" depart="210.00" from="1262072967" to="167454980#3"/>
    <trip id="211" depart="211.00" from="-331667202#1" to="168244311"/>
    <trip id="212" depart="212.00" from="167044123#6" to="-358334883#0"/>
    <trip id="213" depart="213.00" from="168124714#2" to="-1121147958"/>
    <trip id="214" depart="214.00" from="172125682" to="244327259#4"/>
    <trip id="215" depart="215.00" from="-167051098#2" to="1308402359"/>
    <trip id="216" depart="216.00" from="-317768264#2" to="734352498#1"/>
    <trip id="217" depart="217.00" from="167046634#2" to="-166443833#7"/>
    <trip id="218" depart="218.00" from="-36929317" to="358333463#6"/>
    <trip id="219" depart="219.00" from="166482327#1" to="317776723#5"/>
    <trip id="220" depart="220.00" from="168132496#8" to="992659436"/>
    <trip id="221" depart="221.00" from="167449499#1" to="681302538#1"/>
    <trip id="222" depart="222.00" from="37142793#4" to="167450752#0"/>
    <trip id="223" depart="223.00" from="170106270#2" to="167045921#0"/>
    <trip id="224" depart="224.00" from="324734570#0" to="167048967#0"/>
    <trip id="225" depart="225.00" from="37358090#13" to="172127429#2"/>
    <trip id="226" depart="226.00" from="166943453#2" to="-36926042#0"/>
    <trip id="227" depart="227.00" from="-36926042#2" to="167466939#1"/>
    <trip id="228" depart="228.00" from="172127552#1" to="167046634#1"/>
    <trip id="229" depart="229.00" from="167453444#0" to="-37358090#19"/>
    <trip id="230" depart="230.00" from="-167044464#1" to="-37574231#0"/>
    <trip id="231" depart="231.00" from="-37574231#0" to="-492985915#0"/>
    <trip id="232" depart="232.00" from="167048408" to="-170106270#2"/>
    <trip id="233" depart="233.00" from="-358335206" to="168244311"/>
    <trip id="234" depart="234.00" from="168279452#2" to="-167044123#2"/>
    <trip id="235" depart="235.00" from="1261798862" to="167048407#1"/>
    <trip id="236" depart="236.00" from="1262076811#0" to="-324734208#1"/>
    <trip id="237" depart="237.00" from="1289350672" to="451524168"/>
    <trip id="238" depart="238.00" from="167055711" to="168244311"/>
    <trip id="239" depart="239.00" from="334472641#1" to="178823723"/>
    <trip id="240" depart="240.00" from="1213551718#0" to="-1121147959"/>
    <trip id="241" depart="241.00" from="-992663492" to="175183620"/>
    <trip id="242" depart="242.00" from="331667202#5" to="734329883#2"/>
    <trip id="243" depart="243.00" from="1289350671" to="172129856#0"/>
    <trip id="244" depart="244.00" from="167048967#3" to="167449523#0"/>
    <trip id="245" depart="245.00" from="-334472641#1" to="-331667202#13"/>
    <trip id="246" depart="246.00" from="166443833#7" to="-1262053808#0"/>
    <trip id="247" depart="247.00" from="-758060856#0" to="168135415#0"/>
    <trip id="248" depart="248.00" from="1258090143#1" to="-172122819#0"/>
    <trip id="249" depart="249.00" from="166483489#1" to="-170106259#0"/>
    <trip id="250" depart="250.00" from="167452390#0" to="-1261809036"/>
    <trip id="251" depart="251.00" from="1238757597" to="167051093"/>
    <trip id="252" depart="252.00" from="-1261823825" to="168108873#1"/>
    <trip id="253" depart="253.00" from="-170106270#2" to="166483062#1"/>
    <trip id="254" depart="254.00" from="-166443833#13" to="1213551718#0"/>
    <trip id="255" depart="255.00" from="-358334883#0" to="-681302531"/>
    <trip id="256" depart="256.00" from="172127428#1" to="1213551718#0"/>
    <trip id="257" depart="257.00" from="172125775#1" to="-358334883#0"/>
    <trip id="258" depart="258.00" from="-37142793#1" to="-167046634#0"/>
    <trip id="259" depart="259.00" from="-1258090143#1" to="167048052#1"/>
    <trip id="260" depart="260.00" from="992687640#0" to="-992663481"/>
    <trip id="261" depart="261.00" from="168119164#1" to="244329796#5"/>
    <trip id="262" depart="262.00" from="168119165#0" to="175183620"/>
    <trip id="263" depart="263.00" from="681302150" to="-317938568#2"/>
    <trip id="264" depart="264.00" from="-1258090143#1" to="-171995611"/>
    <trip id="265" depart="265.00" from="-168132501#1" to="168132497#9"/>
    <trip id="266" depart="266.00" from="167051094#4" to="-331667202#10"/>
    <trip id="267" depart="267.00" from="168244316#0" to="178823723"/>
    <trip id="268" depart="268.00" from="-172127550" to="167449531#4"/>
    <trip id="269" depart="269.00" from="172123715#0" to="-167466939#0"/>
    <trip id="270" depart="270.00" from="317779045#2" to="755094606#0"/>
    <trip id="271" depart="271.00" from="-167051098#6" to="-1261758412#1"/>
    <trip id="272" depart="272.00" from="-681302150" to="168135414"/>
    <trip id="273" depart="273.00" from="681302537" to="1257759191#7"/>
    <trip id="274" depart="274.00" from="170106270#2" to="-167046552#13"/>
    <trip id="276" depart="276.00" from="-167051092#13" to="244327259#8"/>
    <trip id="277" depart="277.00" from="331667202#3" to="167449520#2"/>
    <trip id="280" depart="280.00" from="166441243" to="1136917573#1"/>
    <trip id="281" depart="281.00" from="167046543#0" to="-758066398"/>
    <trip id="282" depart="282.00" from="331667202#16" to="331667202#15"/>
    <trip id="283" depart="283.00" from="-167051097#2" to="734401614#0"/>
    <trip id="284" depart="284.00" from="167466939#1" to="-358334883#0"/>
    <trip id="285" depart="285.00" from="168279452#3" to="166443833#13"/>
    <trip id="286" depart="286.00" from="171984595" to="755094606#1"/>
    <trip id="287" depart="287.00" from="-37574230#0" to="317938568#4"/>
    <trip id="288" depart="288.00" from="167048405" to="166955832#3"/>
    <trip id="289" depart="289.00" from="166443833#5" to="172125682"/>
    <trip id="290" depart="290.00" from="-37358090#9" to="358334883#0"/>
    <trip id="291" depart="291.00" from="324734570#0" to="-167048848#2"/>
    <trip id="292" depart="292.00" from="36926042#0" to="-358334882#2"/>
    <trip id="293" depart="293.00" from="166483065#3" to="167449536#5"/>
    <trip id="294" depart="294.00" from="1203898627#1" to="-1262053154"/>
    <trip id="295" depart="295.00" from="331667202#4" to="-172127550"/>
    <trip id="296" depart="296.00" from="-358334883#0" to="317776721#8"/>
    <trip id="297" depart="297.00" from="-758650090#1" to="37358088#1"/>
    <trip id="298" depart="298.00" from="168244316#0" to="-37358090#23"/>
    <trip id="299" depart="299.00" from="-1191981330" to="681302536#2"/>
    <trip id="300" depart="300.00" from="-167046553#4" to="171753776#0"/>
    <trip id="301" depart="301.00" from="167043963#1" to="175184616#0"/>
    <trip id="302" depart="302.00" from="168137395#0" to="168119163"/>
    <trip id="303" depart="303.00" from="167044123#3" to="317768264#1"/>
    <trip id="304" depart="304.00" from="-167048848#2" to="-331667202#16"/>
    <trip id="305" depart="305.00" from="168244316#0" to="-451819207#0"/>
    <trip id="306" depart="306.00" from="167053168" to="166940748#2"/>
    <trip id="307" depart="307.00" from="167047653#2" to="1309731172"/>
    <trip id="308" depart="308.00" from="172121486" to="-681302536#2"/>
    <trip id="309" depart="309.00" from="168244316#0" to="-37358088#5"/>
    <trip id="310" depart="310.00" from="-37142793#0" to="-167466939#4"/>
    <trip id="311" depart="311.00" from="-328552372" to="-167466939#2"/>
    <trip id="312" depart="312.00" from="167048052#1" to="177266142#1"/>
    <trip id="313" depart="313.00" from="-317938568#4" to="-331667202#1"/>
    <trip id="314" depart="314.00" from="166955833#0" to="171996607#1"/>
    <trip id="315" depart="315.00" from="758836809" to="167046968#1"/>
    <trip id="316" depart="316.00" from="-451524469" to="-167051097#2"/>
    <trip id="317" depart="317.00" from="-331667202#1" to="-331667202#16"/>
    <trip id="318" depart="318.00" from="-317776721#7" to="-1203898626"/>
    <trip id="319" depart="319.00" from="167047659#0" to="-37358090#17"/>
    <trip id="320" depart="320.00" from="758629177#0" to="167049958#1"/>
    <trip id="321" depart="321.00" from="168244316#0" to="-168136226#2"/>
    <trip id="322" depart="322.00" from="362907448" to="167044123#11"/>
    <trip id="323" depart="323.00" from="368910377#1" to="167051097#2"/>
    <trip id="324" depart="324.00" from="166724646#1" to="166458245#1"/>
    <trip id="325" depart="325.00" from="-317938568#3" to="-166455930"/>
    <trip id="326" depart="326.00" from="451819214#3" to="166952951"/>
    <trip id="327" depart="327.00" from="317938568#3" to="1258090143#1"/>
    <trip id="328" depart="328.00" from="-167044123#7" to="167454980#2"/>
    <trip id="329" depart="329.00" from="-166455930" to="-171984591"/>
    <trip id="330" depart="330.00" from="167051094#3" to="-451819204#0"/>
    <trip id="331" depart="331.00" from="992663481" to="-167466939#1"/>
    <trip id="332" depart="332.00" from="172127549" to="167449531#2"/>
    <trip id="333" depart="333.00" from="244327259#0" to="-331667202#16"/>
    <trip id="334" depart="334.00" from="167046968#3" to="166481851#0"/>
    <trip id="335" depart="335.00" from="166458246#2" to="36897745#1"/>
    <trip id="336" depart="336.00" from="93548853#1" to="-451819206"/>
    <trip id="338" depart="338.00" from="171996617#0" to="681302536#2"/>
    <trip id="339" depart="339.00" from="-358334883#0" to="-327199764"/>
    <trip id="340" depart="340.00" from="168124717" to="-171996614"/>
    <trip id="341" depart="341.00" from="-177266142#1" to="-167046552#1"/>
    <trip id="342" depart="342.00" from="-1076305651" to="166481851#0"/>
    <trip id="343" depart="343.00" from="167449499#1" to="-451521697#4"/>
    <trip id="344" depart="344.00" from="-358335206" to="168279452#3"/>
    <trip id="345" depart="345.00" from="168244316#0" to="166481853"/>
    <trip id="346" depart="346.00" from="168136226#2" to="451819211#1"/>
    <trip id="347" depart="347.00" from="178823723" to="167452389#3"/>
    <trip id="348" depart="348.00" from="168126207#1" to="451820858"/>
    <trip id="350" depart="350.00" from="168119162#4" to="451524468"/>
    <trip id="351" depart="351.00" from="324734208#0" to="-167044123#9"/>
    <trip id="352" depart="352.00" from="-172127429#2" to="-451819208#1"/>
    <trip id="353" depart="353.00" from="172125337" to="167051096#0"/>
    <trip id="354" depart="354.00" from="-451542640#2" to="-168132501#3"/>
    <trip id="355" depart="355.00" from="168137395#0" to="168244311"/>
    <trip id="356" depart="356.00" from="451819215" to="167044123#8"/>
    <trip id="357" depart="357.00" from="167044123#6" to="-167046553#4"/>
    <trip id="358" depart="358.00" from="-1308255634" to="166443220"/>
    <trip id="359" depart="359.00" from="-681302536#2" to="-36897745#0"/>
    <trip id="361" depart="361.00" from="328550349" to="167051098#0"/>
    <trip id="362" depart="362.00" from="681302528#0" to="992687668"/>
    <trip id="363" depart="363.00" from="168132497#7" to="-37358088#1"/>
    <trip id="364" depart="364.00" from="-1308399304" to="175183622#2"/>
    <trip id="365" depart="365.00" from="166725271#1" to="168119166#1"/>
    <trip id="366" depart="366.00" from="451521697#0" to="-172127550"/>
    <trip id="367" depart="367.00" from="167055711" to="167456094#1"/>
    <trip id="368" depart="368.00" from="167044123#4" to="-167048967#2"/>
    <trip id="369" depart="369.00" from="-992663478" to="-681302538#2"/>
    <trip id="370" depart="370.00" from="168132497#3" to="36877671#0"/>
    <trip id="371" depart="371.00" from="-734401613" to="168244311"/>
    <trip id="372" depart="372.00" from="-451542640#2" to="681302532"/>
    <trip id="373" depart="373.00" from="317776723#0" to="167048967#3"/>
    <trip id="374" depart="374.00" from="166482093#1" to="-451819214#2"/>
    <trip id="375" depart="375.00" from="-681302537" to="758650090#0"/>
    <trip id="376" depart="376.00" from="1258090143#1" to="167046552#13"/>
    <trip id="377" depart="377.00" from="93548853#0" to="168124717"/>
    <trip id="378" depart="378.00" from="167048966#0" to="1262069408#1"/>
    <trip id="379" depart="379.00" from="-324734570#2" to="1069815571#2"/>
    <trip id="380" depart="380.00" from="172126968" to="167452389#3"/>
    <trip id="381" depart="381.00" from="172127428#0" to="-324734208#0"/>
    <trip id="382" depart="382.00" from="167049315#4" to="451819214#3"/>
    <trip id="383" depart="383.00" from="166456920#2" to="168244311"/>
    <trip id="384" depart="384.00" from="-167466939#1" to="93548830"/>
    <trip id="385" depart="385.00" from="167450221" to="-358333463#0"/>
    <trip id="386" depart="386.00" from="-172126098#2" to="167049315#2"/>
    <trip id="387" depart="387.00" from="167049958#7" to="-167050545#1"/>
    <trip id="388" depart="388.00" from="992658050" to="451542640#0"/>
    <trip id="389" depart="389.00" from="166483064" to="-167466939#1"/>
    <trip id="390" depart="390.00" from="324734570#4" to="167044123#6"/>
    <trip id="391" depart="391.00" from="170106270#2" to="167045926#0"/>
    <trip id="392" depart="392.00" from="-37574236#1" to="-358334883#0"/>
    <trip id="394" depart="394.00" from="167049958#5" to="1213551720"/>
    <trip id="395" depart="395.00" from="451524466#4" to="167045921#5"/>
    <trip id="396" depart="396.00" from="36926040#0" to="36907635#1"/>
    <trip id="397" depart="397.00" from="-451521697#2" to="29491933"/>
    <trip id="398" depart="398.00" from="1262075257" to="474031501"/>
    <trip id="399" depart="399.00" from="167046543#4" to="331667202#13"/>
    <trip id="400" depart="400.00" from="-451524469" to="-451542451#0"/>
    <trip id="401" depart="401.00" from="167448937#0" to="992687668"/>
    <trip id="402" depart="402.00" from="167044123#0" to="-171984589"/>